data_mofplus.org:HKUST-1_1x1x1
_symmetry_cell_setting           triclinic 
_symmetry_space_group_name_H-M   'P 1' 
_symmetry_Int_Tables_number      1 
loop_ 
_symmetry_equiv_pos_site_id 
_symmetry_equiv_pos_as_xyz 
1 'x, y, z' 
_cell_length_a             26.432700        
_cell_length_b             26.432700        
_cell_length_c             26.432700        
_cell_angle_alpha          90.000000        
_cell_angle_beta           90.000000        
_cell_angle_gamma          90.000000        
loop_  
_atom_site_label   
_atom_site_type_symbol  
_atom_site_fract_x  
_atom_site_fract_y  
_atom_site_fract_z 
 C0  C     0.322136      0.387039      0.322137 
 C1  C     0.365736      0.365744      0.300749 
 C2  C     0.387043      0.322142      0.322122 
 C3  C     0.365751      0.300757      0.365725 
 C4  C     0.322151      0.322132      0.387035 
 C5  C     0.300767      0.365735      0.365742 
 H6  H     0.382684      0.382703      0.266934 
 H7  H     0.382711      0.266943      0.382673 
 H8  H     0.266957      0.382687      0.382705 
 Cu9  Cu     0.283625      0.000002      0.283608 
 Cu10  Cu     0.216390      0.000002      0.216386 
 O11  O     0.183061     -0.052419      0.256445 
 C12  C     0.203122     -0.069117      0.296888 
 O13  O     0.243571     -0.052423      0.316943 
 O14  O     0.183066      0.052420      0.256450 
 C15  C     0.203127      0.069120      0.296893 
 O16  O     0.243576      0.052428      0.316947 
 O17  O     0.256446     -0.052417      0.183049 
 C18  C     0.296893     -0.069113      0.203105 
 O19  O     0.316957     -0.052414      0.243546 
 O20  O     0.256438      0.052423      0.183045 
 C21  C     0.296887      0.069116      0.203100 
 O22  O     0.316950      0.052417      0.243541 
 C23  C     0.322127     -0.177854     -0.112953 
 C24  C     0.365732     -0.199237     -0.134244 
 C25  C     0.387039     -0.177864     -0.177845 
 C26  C     0.365745     -0.134262     -0.199230 
 C27  C     0.322141     -0.112957     -0.177860 
 C28  C     0.300752     -0.134254     -0.134261 
 H29  H     0.382682     -0.233050     -0.117283 
 H30  H     0.382705     -0.117312     -0.233043 
 H31  H     0.266934     -0.117298     -0.117316 
 Cu32  Cu     0.216382      0.499998     -0.283614 
 Cu33  Cu     0.283602      0.499999     -0.216380 
 O34  O     0.243534     -0.447586     -0.183053 
 C35  C     0.203094     -0.430885     -0.203116 
 O36  O     0.183038     -0.447578     -0.243564 
 O37  O     0.243542      0.447580     -0.183049 
 C38  C     0.203100      0.430881     -0.203112 
 O39  O     0.183044      0.447575     -0.243560 
 O40  O     0.316943     -0.447573     -0.256427 
 C41  C     0.296890     -0.430880     -0.296877 
 O42  O     0.256448     -0.447580     -0.316939 
 O43  O     0.316939      0.447573     -0.256433 
 C44  C     0.296886      0.430877     -0.296882 
 O45  O     0.256443      0.447575     -0.316944 
 C46  C    -0.112955      0.322141     -0.177875 
 C47  C    -0.134248      0.300756     -0.134273 
 C48  C    -0.177847      0.322133     -0.112964 
 C49  C    -0.199232      0.365735     -0.134258 
 C50  C    -0.177861      0.387040     -0.177862 
 C51  C    -0.134260      0.365744     -0.199247 
 H52  H    -0.117291      0.266940     -0.117326 
 H53  H    -0.233044      0.382686     -0.117296 
 H54  H    -0.117310      0.382704     -0.233060 
 Cu55  Cu    -0.216384      0.000003     -0.216387 
 Cu56  Cu    -0.283609      0.000004     -0.283616 
 O57  O    -0.243552      0.052424     -0.316950 
 C58  C    -0.203108      0.069122     -0.296890 
 O59  O    -0.183051      0.052426     -0.256444 
 O60  O    -0.243549     -0.052413     -0.316953 
 C61  C    -0.203107     -0.069114     -0.296892 
 O62  O    -0.183050     -0.052420     -0.256445 
 O63  O    -0.316940      0.052428     -0.243557 
 C64  C    -0.296884      0.069124     -0.203110 
 O65  O    -0.256440      0.052427     -0.183051 
 O66  O    -0.316944     -0.052423     -0.243563 
 C67  C    -0.296888     -0.069118     -0.203115 
 O68  O    -0.256445     -0.052418     -0.183055 
 C69  C    -0.177873     -0.177858      0.387046 
 C70  C    -0.134268     -0.199239      0.365753 
 C71  C    -0.112963     -0.177863      0.322152 
 C72  C    -0.134260     -0.134262      0.300768 
 C73  C    -0.177862     -0.112958      0.322142 
 C74  C    -0.199249     -0.134257      0.365742 
 H75  H    -0.117316     -0.233051      0.382713 
 H76  H    -0.117302     -0.117311      0.266954 
 H77  H    -0.233065     -0.117301      0.382690 
 Cu78  Cu    -0.283619      0.499997      0.216390 
 Cu79  Cu    -0.216387      0.499996      0.283614 
 O80  O    -0.183059      0.447577      0.243552 
 C81  C    -0.203119      0.430878      0.203108 
 O82  O    -0.243567      0.447571      0.183052 
 O83  O    -0.183054     -0.447584      0.243556 
 C84  C    -0.203115     -0.430884      0.203114 
 O85  O    -0.243563     -0.447578      0.183058 
 O86  O    -0.256440      0.447574      0.316949 
 C87  C    -0.296887      0.430881      0.296892 
 O88  O    -0.316949      0.447579      0.256450 
 O89  O    -0.256442     -0.447583      0.316950 
 C90  C    -0.296889     -0.430888      0.296894 
 O91  O    -0.316952     -0.447587      0.256452 
 Cu92  Cu     0.283610      0.283616      0.000003 
 Cu93  Cu     0.216382      0.216388      0.000003 
 O94  O     0.183043      0.256439      0.052424 
 C95  C     0.203102      0.296884      0.069120 
 O96  O     0.243547      0.316942      0.052425 
 O97  O     0.183048      0.256447     -0.052416 
 C98  C     0.203108      0.296891     -0.069114 
 O99  O     0.243554      0.316949     -0.052420 
 O100  O     0.256444      0.183061      0.052424 
 C101  C     0.296890      0.203119      0.069119 
 O102  O     0.316949      0.243564      0.052424 
 O103  O     0.256438      0.183055     -0.052419 
 C104  C     0.296884      0.203112     -0.069114 
 O105  O     0.316944      0.243556     -0.052416 
 Cu106  Cu     0.000000      0.283606      0.283625 
 Cu107  Cu    -0.000004      0.216384      0.216390 
 O108  O    -0.052422      0.256449      0.183068 
 C109  C    -0.069119      0.296892      0.203129 
 O110  O    -0.052425      0.316947      0.243577 
 O111  O     0.052415      0.256447      0.183059 
 C112  C     0.069115      0.296888      0.203122 
 O113  O     0.052424      0.316942      0.243572 
 O114  O    -0.052424      0.183052      0.256449 
 C115  C    -0.069117      0.203108      0.296897 
 O116  O    -0.052417      0.243550      0.316960 
 O117  O     0.052421      0.183038      0.256433 
 C118  C     0.069115      0.203093      0.296880 
 O119  O     0.052415      0.243535      0.316944 
 Cu120  Cu    -0.216396      0.283618     -0.499999 
 Cu121  Cu    -0.283624      0.216391     -0.499999 
 O122  O    -0.316962      0.256447     -0.447581 
 C123  C    -0.296901      0.296890     -0.430884 
 O124  O    -0.256456      0.316949     -0.447580 
 O125  O    -0.316960      0.256449      0.447583 
 C126  C    -0.296898      0.296892      0.430885 
 O127  O    -0.256453      0.316949      0.447581 
 O128  O    -0.243565      0.183063     -0.447574 
 C129  C    -0.203118      0.203120     -0.430880 
 O130  O    -0.183060      0.243565     -0.447577 
 O131  O    -0.243568      0.183059      0.447576 
 C132  C    -0.203121      0.203115      0.430882 
 O133  O    -0.183062      0.243560      0.447580 
 Cu134  Cu    -0.499996     -0.283615      0.216382 
 Cu135  Cu    -0.499997     -0.216385      0.283607 
 O136  O    -0.447576     -0.183053      0.243549 
 C137  C    -0.430877     -0.203114      0.203106 
 O138  O    -0.447572     -0.243561      0.183049 
 O139  O     0.447583     -0.183050      0.243547 
 C140  C     0.430885     -0.203110      0.203104 
 O141  O     0.447580     -0.243556      0.183047 
 O142  O    -0.447572     -0.256440      0.316944 
 C143  C    -0.430877     -0.296888      0.296888 
 O144  O    -0.447574     -0.316947      0.256444 
 O145  O     0.447580     -0.256443      0.316938 
 C146  C     0.430884     -0.296890      0.296881 
 O147  O     0.447583     -0.316950      0.256437 
 Cu148  Cu    -0.216377     -0.216389     -0.000001 
 Cu149  Cu    -0.283603     -0.283619     -0.000001 
 O150  O    -0.243544     -0.316953     -0.052419 
 C151  C    -0.203101     -0.296892     -0.069118 
 O152  O    -0.183044     -0.256446     -0.052423 
 O153  O    -0.243546     -0.316956      0.052416 
 C154  C    -0.203103     -0.296895      0.069115 
 O155  O    -0.183044     -0.256450      0.052419 
 O156  O    -0.316935     -0.243563     -0.052425 
 C157  C    -0.296880     -0.203115     -0.069120 
 O158  O    -0.256436     -0.183055     -0.052423 
 O159  O    -0.316932     -0.243560      0.052424 
 C160  C    -0.296876     -0.203114      0.069120 
 O161  O    -0.256431     -0.183054      0.052423 
 Cu162  Cu     0.000003     -0.283610     -0.283619 
 Cu163  Cu    -0.000001     -0.216376     -0.216398 
 O164  O     0.052415     -0.183045     -0.256461 
 C165  C     0.069117     -0.203109     -0.296901 
 O166  O     0.052425     -0.243558     -0.316956 
 O167  O    -0.052419     -0.183049     -0.256462 
 C168  C    -0.069116     -0.203111     -0.296905 
 O169  O    -0.052420     -0.243557     -0.316961 
 O170  O     0.052427     -0.256420     -0.183052 
 C171  C     0.069120     -0.296869     -0.203106 
 O172  O     0.052421     -0.316931     -0.243548 
 O173  O    -0.052425     -0.256436     -0.183067 
 C174  C    -0.069119     -0.296884     -0.203122 
 O175  O    -0.052420     -0.316945     -0.243565 
 Cu176  Cu     0.283617     -0.216388      0.499997 
 Cu177  Cu     0.216390     -0.283616      0.499997 
 O178  O     0.256450     -0.316950      0.447577 
 C179  C     0.296894     -0.296889      0.430878 
 O180  O     0.316951     -0.256442      0.447573 
 O181  O     0.256442     -0.316956     -0.447581 
 C182  C     0.296886     -0.296896     -0.430884 
 O183  O     0.316944     -0.256451     -0.447581 
 O184  O     0.183058     -0.243561      0.447572 
 C185  C     0.203114     -0.203114      0.430879 
 O186  O     0.243558     -0.183054      0.447577 
 O187  O     0.183062     -0.243552     -0.447582 
 C188  C     0.203120     -0.203107     -0.430885 
 O189  O     0.243564     -0.183048     -0.447582 
 Cu190  Cu     0.499997      0.216385     -0.283609 
 Cu191  Cu     0.499998      0.283611     -0.216378 
 O192  O     0.447580      0.243555     -0.183041 
 C193  C     0.430883      0.203111     -0.203102 
 O194  O     0.447578      0.183053     -0.243548 
 O195  O    -0.447586      0.243549     -0.183050 
 C196  C    -0.430887      0.203107     -0.203112 
 O197  O    -0.447581      0.183049     -0.243558 
 O198  O     0.447575      0.316943     -0.256432 
 C199  C     0.430880      0.296885     -0.296878 
 O200  O     0.447576      0.256441     -0.316938 
 O201  O    -0.447579      0.316945     -0.256434 
 C202  C    -0.430886      0.296890     -0.296882 
 O203  O    -0.447585      0.256446     -0.316942 
 C204  C     0.322145      0.322136     -0.387038 
 C205  C     0.300766      0.365738     -0.365738 
 C206  C     0.322140      0.387038     -0.322133 
 C207  C     0.365740      0.365738     -0.300752 
 C208  C     0.387041      0.322136     -0.322130 
 C209  C     0.365744      0.300756     -0.365733 
 H210  H     0.266955      0.382694     -0.382697 
 H211  H     0.382694      0.382693     -0.266938 
 H212  H     0.382700      0.266941     -0.382686 
 Cu213  Cu     0.283619      0.000002     -0.283612 
 Cu214  Cu     0.216394      0.000002     -0.216382 
 O215  O     0.256456     -0.052413     -0.183051 
 C216  C     0.296899     -0.069113     -0.203111 
 O217  O     0.316957     -0.052420     -0.243558 
 O218  O     0.256451      0.052420     -0.183047 
 C219  C     0.296894      0.069118     -0.203107 
 O220  O     0.316953      0.052423     -0.243553 
 O221  O     0.183057     -0.052424     -0.256434 
 C222  C     0.203113     -0.069117     -0.296882 
 O223  O     0.243557     -0.052418     -0.316942 
 O224  O     0.183063      0.052427     -0.256439 
 C225  C     0.203119      0.069122     -0.296886 
 O226  O     0.243564      0.052425     -0.316945 
 C227  C     0.387042     -0.177859      0.177855 
 C228  C     0.365741     -0.134257      0.199235 
 C229  C     0.322138     -0.112957      0.177858 
 C230  C     0.300754     -0.134258      0.134259 
 C231  C     0.322133     -0.177859      0.112958 
 C232  C     0.365738     -0.199237      0.134253 
 H233  H     0.382696     -0.117304      0.233049 
 H234  H     0.266937     -0.117306      0.117309 
 H235  H     0.382693     -0.233049      0.117296 
 Cu236  Cu     0.216378      0.499998      0.283610 
 Cu237  Cu     0.283607      0.499998      0.216384 
 O238  O     0.316942     -0.447580      0.256440 
 C239  C     0.296884     -0.430882      0.296884 
 O240  O     0.256437     -0.447577      0.316942 
 O241  O     0.316937      0.447578      0.256445 
 C242  C     0.296878      0.430878      0.296889 
 O243  O     0.256430      0.447570      0.316946 
 O244  O     0.243549     -0.447583      0.183051 
 C245  C     0.203103     -0.430886      0.203109 
 O246  O     0.183042     -0.447584      0.243552 
 O247  O     0.243555      0.447575      0.183048 
 C248  C     0.203108      0.430882      0.203105 
 O249  O     0.183047      0.447581      0.243548 
 C250  C    -0.112957      0.322141      0.177874 
 C251  C    -0.134262      0.365744      0.199246 
 C252  C    -0.177862      0.387040      0.177860 
 C253  C    -0.199233      0.365736      0.134256 
 C254  C    -0.177849      0.322134      0.112961 
 C255  C    -0.134250      0.300757      0.134271 
 H256  H    -0.117311      0.382704      0.233059 
 H257  H    -0.233045      0.382688      0.117295 
 H258  H    -0.117293      0.266941      0.117323 
 Cu259  Cu    -0.216382      0.000002      0.216387 
 Cu260  Cu    -0.283608      0.000003      0.283616 
 O261  O    -0.243548     -0.052413      0.316952 
 C262  C    -0.203106     -0.069114      0.296891 
 O263  O    -0.183048     -0.052421      0.256444 
 O264  O    -0.243552      0.052421      0.316950 
 C265  C    -0.203109      0.069119      0.296891 
 O266  O    -0.183049      0.052424      0.256445 
 O267  O    -0.316942     -0.052424      0.243563 
 C268  C    -0.296885     -0.069118      0.203115 
 O269  O    -0.256442     -0.052418      0.183055 
 O270  O    -0.316938      0.052426      0.243557 
 C271  C    -0.296881      0.069121      0.203110 
 O272  O    -0.256436      0.052425      0.183051 
 C273  C    -0.177870     -0.177861     -0.387045 
 C274  C    -0.134265     -0.199239     -0.365752 
 C275  C    -0.112960     -0.177862     -0.322152 
 C276  C    -0.134259     -0.134261     -0.300768 
 C277  C    -0.177862     -0.112959     -0.322142 
 C278  C    -0.199247     -0.134259     -0.365741 
 H279  H    -0.117311     -0.233051     -0.382711 
 H280  H    -0.117302     -0.117310     -0.266954 
 H281  H    -0.233064     -0.117306     -0.382691 
 Cu282  Cu    -0.283620      0.499998     -0.216389 
 Cu283  Cu    -0.216390      0.499998     -0.283614 
 O284  O    -0.183055     -0.447581     -0.243558 
 C285  C    -0.203115     -0.430882     -0.203115 
 O286  O    -0.243562     -0.447576     -0.183058 
 O287  O    -0.183060      0.447578     -0.243554 
 C288  C    -0.203119      0.430878     -0.203110 
 O289  O    -0.243567      0.447571     -0.183053 
 O290  O    -0.256447     -0.447582     -0.316950 
 C291  C    -0.296894     -0.430886     -0.296893 
 O292  O    -0.316955     -0.447585     -0.256450 
 O293  O    -0.256444      0.447574     -0.316948 
 C294  C    -0.296891      0.430881     -0.296891 
 O295  O    -0.316952      0.447580     -0.256449 
 Cu296  Cu    -0.000000      0.216383     -0.216392 
 Cu297  Cu     0.000004      0.283609     -0.283622 
 O298  O     0.052422      0.243548     -0.316950 
 C299  C     0.069117      0.203104     -0.296889 
 O300  O     0.052421      0.183046     -0.256444 
 O301  O    -0.052413      0.243552     -0.316960 
 C302  C    -0.069113      0.203110     -0.296897 
 O303  O    -0.052420      0.183053     -0.256450 
 O304  O     0.052425      0.316935     -0.243560 
 C305  C     0.069118      0.296878     -0.203112 
 O306  O     0.052421      0.256434     -0.183053 
 O307  O    -0.052421      0.316949     -0.243576 
 C308  C    -0.069115      0.296893     -0.203129 
 O309  O    -0.052418      0.256449     -0.183068 
 Cu310  Cu     0.499998     -0.283615     -0.216384 
 Cu311  Cu     0.499997     -0.216381     -0.283605 
 O312  O     0.447580     -0.183056     -0.243536 
 C313  C     0.430880     -0.203118     -0.203094 
 O314  O     0.447573     -0.243567     -0.183040 
 O315  O    -0.447583     -0.183050     -0.243547 
 C316  C    -0.430883     -0.203113     -0.203105 
 O317  O    -0.447578     -0.243560     -0.183049 
 O318  O     0.447571     -0.256429     -0.316945 
 C319  C     0.430879     -0.296878     -0.296890 
 O320  O     0.447580     -0.316941     -0.256449 
 O321  O    -0.447578     -0.256437     -0.316944 
 C322  C    -0.430883     -0.296885     -0.296889 
 O323  O    -0.447581     -0.316946     -0.256446 
 Cu324  Cu    -0.000004     -0.216380      0.216396 
 Cu325  Cu    -0.000000     -0.283610      0.283621 
 O326  O    -0.052423     -0.316946      0.243566 
 C327  C    -0.069122     -0.296886      0.203122 
 O328  O    -0.052429     -0.256438      0.183066 
 O329  O     0.052421     -0.316940      0.243559 
 C330  C     0.069118     -0.296881      0.203114 
 O331  O     0.052422     -0.256434      0.183058 
 O332  O    -0.052424     -0.243559      0.316962 
 C333  C    -0.069120     -0.203113      0.296905 
 O334  O    -0.052422     -0.183052      0.256461 
 O335  O     0.052421     -0.243547      0.316949 
 C336  C     0.069116     -0.203101      0.296891 
 O337  O     0.052416     -0.183040      0.256449 
 Cu338  Cu    -0.499997      0.283608      0.216376 
 Cu339  Cu    -0.499998      0.216386      0.283610 
 O340  O    -0.447579      0.256446      0.316942 
 C341  C    -0.430880      0.296889      0.296881 
 O342  O    -0.447573      0.316944      0.256432 
 O343  O     0.447584      0.256454      0.316932 
 C344  C     0.430884      0.296895      0.296869 
 O345  O     0.447577      0.316950      0.256420 
 O346  O    -0.447576      0.183048      0.243560 
 C347  C    -0.430881      0.203105      0.203113 
 O348  O    -0.447580      0.243546      0.183050 
 O349  O     0.447578      0.183045      0.243559 
 C350  C     0.430886      0.203100      0.203110 
 O351  O     0.447587      0.243541      0.183047 
 C352  C    -0.387042      0.322141      0.322135 
 C353  C    -0.365740      0.365742      0.300758 
 C354  C    -0.322138      0.387040      0.322140 
 C355  C    -0.300761      0.365739      0.365742 
 C356  C    -0.322144      0.322140      0.387042 
 C357  C    -0.365745      0.300762      0.365739 
 H358  H    -0.382692      0.382698      0.266944 
 H359  H    -0.266945      0.382691      0.382697 
 H360  H    -0.382702      0.266948      0.382693 
 C361  C    -0.322138     -0.112960     -0.177863 
 C362  C    -0.365741     -0.134262     -0.199240 
 C363  C    -0.387039     -0.177864     -0.177858 
 C364  C    -0.365736     -0.199243     -0.134258 
 C365  C    -0.322134     -0.177863     -0.112960 
 C366  C    -0.300758     -0.134260     -0.134261 
 H367  H    -0.382698     -0.117308     -0.233053 
 H368  H    -0.382689     -0.233058     -0.117303 
 H369  H    -0.266946     -0.117303     -0.117306 
 C370  C     0.112956      0.322131     -0.177860 
 C371  C     0.134257      0.300755     -0.134257 
 C372  C     0.177857      0.322138     -0.112957 
 C373  C     0.199233      0.365740     -0.134259 
 C374  C     0.177852      0.387038     -0.177862 
 C375  C     0.134253      0.365734     -0.199240 
 H376  H     0.117305      0.266941     -0.117301 
 H377  H     0.233047      0.382697     -0.117306 
 H378  H     0.117297      0.382686     -0.233055 
 C379  C     0.177865     -0.177861      0.387039 
 C380  C     0.134262     -0.199237      0.365738 
 C381  C     0.112961     -0.177854      0.322138 
 C382  C     0.134265     -0.134253      0.300760 
 C383  C     0.177869     -0.112956      0.322139 
 C384  C     0.199246     -0.134259      0.365741 
 H385  H     0.117306     -0.233052      0.382690 
 H386  H     0.117312     -0.117297      0.266946 
 H387  H     0.233060     -0.117306      0.382697 
 Cu388  Cu    -0.216381      0.216385     -0.000001 
 Cu389  Cu    -0.283598      0.283623     -0.000001 
 O390  O    -0.243532      0.316949      0.052415 
 C391  C    -0.203092      0.296884      0.069116 
 O392  O    -0.183037      0.256436      0.052423 
 O393  O    -0.243530      0.316948     -0.052416 
 C394  C    -0.203090      0.296883     -0.069118 
 O395  O    -0.183037      0.256434     -0.052426 
 O396  O    -0.316939      0.243573      0.052427 
 C397  C    -0.296886      0.203123      0.069120 
 O398  O    -0.256445      0.183060      0.052420 
 O399  O    -0.316941      0.243577     -0.052428 
 C400  C    -0.296890      0.203127     -0.069122 
 O401  O    -0.256449      0.183063     -0.052422 
 Cu402  Cu     0.283613      0.216384      0.499997 
 Cu403  Cu     0.216394      0.283619      0.499997 
 O404  O     0.256456      0.316950     -0.447583 
 C405  C     0.296897      0.296886     -0.430883 
 O406  O     0.316952      0.256438     -0.447578 
 O407  O     0.256464      0.316942      0.447578 
 C408  C     0.296904      0.296879      0.430877 
 O409  O     0.316957      0.256429      0.447569 
 O410  O     0.183055      0.243565     -0.447578 
 C411  C     0.203109      0.203117     -0.430883 
 O412  O     0.243551      0.183054     -0.447583 
 O413  O     0.183050      0.243573      0.447569 
 C414  C     0.203104      0.203124      0.430877 
 O415  O     0.243544      0.183060      0.447579 
 Cu416  Cu     0.283614     -0.283612      0.000003 
 Cu417  Cu     0.216378     -0.216392      0.000004 
 O418  O     0.183054     -0.256460     -0.052412 
 C419  C     0.203117     -0.296900     -0.069114 
 O420  O     0.243567     -0.316955     -0.052422 
 O421  O     0.183049     -0.256452      0.052421 
 C422  C     0.203112     -0.296894      0.069119 
 O423  O     0.243561     -0.316948      0.052426 
 O424  O     0.256424     -0.183048     -0.052421 
 C425  C     0.296873     -0.203102     -0.069113 
 O426  O     0.316937     -0.243543     -0.052413 
 O427  O     0.256431     -0.183055      0.052426 
 C428  C     0.296880     -0.203110      0.069119 
 O429  O     0.316943     -0.243552      0.052421 
 Cu430  Cu    -0.216394     -0.283616     -0.499999 
 Cu431  Cu    -0.283626     -0.216392     -0.499999 
 O432  O    -0.316956     -0.256453     -0.447582 
 C433  C    -0.296894     -0.296896     -0.430886 
 O434  O    -0.256448     -0.316954     -0.447581 
 O435  O    -0.243573     -0.183057     -0.447576 
 C436  C    -0.203125     -0.203113     -0.430882 
 O437  O    -0.183066     -0.243557     -0.447578 
 O438  O    -0.316955     -0.256456      0.447585 
 C439  C    -0.296892     -0.296898      0.430888 
 O440  O    -0.256445     -0.316955      0.447582 
 O441  O    -0.243577     -0.183054      0.447576 
 C442  C    -0.203129     -0.203110      0.430883 
 O443  O    -0.183068     -0.243554      0.447581 
 C444  C    -0.387047      0.322140     -0.322135 
 C445  C    -0.365749      0.300760     -0.365738 
 C446  C    -0.322148      0.322138     -0.387040 
 C447  C    -0.300765      0.365738     -0.365741 
 C448  C    -0.322142      0.387040     -0.322139 
 C449  C    -0.365745      0.365742     -0.300758 
 H450  H    -0.382705      0.266947     -0.382691 
 H451  H    -0.266949      0.382690     -0.382695 
 H452  H    -0.382697      0.382699     -0.266944 
 C453  C    -0.322135     -0.112959      0.177863 
 C454  C    -0.365736     -0.134262      0.199240 
 C455  C    -0.387035     -0.177864      0.177858 
 C456  C    -0.365732     -0.199242      0.134257 
 C457  C    -0.322129     -0.177862      0.112959 
 C458  C    -0.300754     -0.134258      0.134261 
 H459  H    -0.382693     -0.117309      0.233054 
 H460  H    -0.382685     -0.233056      0.117301 
 H461  H    -0.266941     -0.117301      0.117307 
 C462  C     0.112955      0.322137      0.177869 
 C463  C     0.134259      0.365739      0.199245 
 C464  C     0.177858      0.387039      0.177860 
 C465  C     0.199233      0.365737      0.134257 
 C466  C     0.177852      0.322135      0.112961 
 C467  C     0.134251      0.300757      0.134265 
 H468  H     0.117309      0.382695      0.233061 
 H469  H     0.233046      0.382691      0.117298 
 H470  H     0.117294      0.266943      0.117313 
 C471  C     0.112962     -0.177860     -0.322146 
 C472  C     0.134267     -0.199239     -0.365746 
 C473  C     0.177869     -0.177858     -0.387043 
 C474  C     0.199246     -0.134256     -0.365738 
 C475  C     0.177863     -0.112957     -0.322137 
 C476  C     0.134259     -0.134259     -0.300763 
 H477  H     0.117316     -0.233054     -0.382702 
 H478  H     0.233060     -0.117299     -0.382690 
 H479  H     0.117300     -0.117306     -0.266951 
 C480  C     0.387041     -0.322139      0.322130 
 C481  C     0.365738     -0.365741      0.300752 
 C482  C     0.322138     -0.387042      0.322134 
 C483  C     0.300764     -0.365743      0.365739 
 C484  C     0.322144     -0.322140      0.387037 
 C485  C     0.365744     -0.300760      0.365733 
 H486  H     0.382690     -0.382694      0.266936 
 H487  H     0.266954     -0.382699      0.382699 
 H488  H     0.382699     -0.266946      0.382686 
 C489  C    -0.112958     -0.322137     -0.177870 
 C490  C    -0.134260     -0.365740     -0.199247 
 C491  C    -0.177861     -0.387041     -0.177866 
 C492  C    -0.199236     -0.365741     -0.134262 
 C493  C    -0.177855     -0.322140     -0.112963 
 C494  C    -0.134256     -0.300759     -0.134266 
 H495  H    -0.117307     -0.382695     -0.233061 
 H496  H    -0.233049     -0.382695     -0.117305 
 H497  H    -0.117301     -0.266944     -0.117313 
 C498  C     0.322135      0.177862     -0.112955 
 C499  C     0.365738      0.199241     -0.134252 
 C500  C     0.387041      0.177862     -0.177853 
 C501  C     0.365743      0.134260     -0.199233 
 C502  C     0.322140      0.112960     -0.177857 
 C503  C     0.300757      0.134261     -0.134257 
 H504  H     0.382691      0.233056     -0.117297 
 H505  H     0.382700      0.117306     -0.233046 
 H506  H     0.266940      0.117308     -0.117307 
 C507  C    -0.177867      0.177863      0.387043 
 C508  C    -0.134262      0.199240      0.365746 
 C509  C    -0.112960      0.177861      0.322146 
 C510  C    -0.134259      0.134260      0.300764 
 C511  C    -0.177862      0.112960      0.322141 
 C512  C    -0.199245      0.134261      0.365741 
 H513  H    -0.117308      0.233053      0.382702 
 H514  H    -0.117303      0.117306      0.266951 
 H515  H    -0.233060      0.117307      0.382693 
 C516  C     0.387038     -0.322131     -0.322138 
 C517  C     0.365736     -0.300757     -0.365742 
 C518  C     0.322137     -0.322143     -0.387041 
 C519  C     0.300762     -0.365745     -0.365736 
 C520  C     0.322142     -0.387040     -0.322131 
 C521  C     0.365742     -0.365733     -0.300755 
 H522  H     0.382686     -0.266943     -0.382699 
 H523  H     0.266951     -0.382706     -0.382690 
 H524  H     0.382700     -0.382683     -0.266940 
 C525  C    -0.112961     -0.322140      0.177869 
 C526  C    -0.134262     -0.365743      0.199245 
 C527  C    -0.177863     -0.387044      0.177864 
 C528  C    -0.199239     -0.365744      0.134260 
 C529  C    -0.177857     -0.322143      0.112960 
 C530  C    -0.134258     -0.300762      0.134265 
 H531  H    -0.117309     -0.382698      0.233059 
 H532  H    -0.233051     -0.382699      0.117304 
 H533  H    -0.117304     -0.266948      0.117311 
 C534  C     0.322136      0.112957      0.177853 
 C535  C     0.300758      0.134264      0.134254 
 C536  C     0.322140      0.177866      0.112958 
 C537  C     0.365744      0.199239      0.134260 
 C538  C     0.387043      0.177854      0.177860 
 C539  C     0.365740      0.134252      0.199234 
 H540  H     0.266942      0.117314      0.117298 
 H541  H     0.382701      0.233053      0.117310 
 H542  H     0.382691      0.117293      0.233047 
 C543  C    -0.177864      0.177867     -0.387042 
 C544  C    -0.134259      0.199244     -0.365745 
 C545  C    -0.112957      0.177863     -0.322145 
 C546  C    -0.134257      0.134263     -0.300763 
 C547  C    -0.177860      0.112963     -0.322141 
 C548  C    -0.199242      0.134265     -0.365741 
 H549  H    -0.117305      0.233058     -0.382699 
 H550  H    -0.117302      0.117309     -0.266950 
 H551  H    -0.233056      0.117311     -0.382694 
 C552  C    -0.322141     -0.387043     -0.322140 
 C553  C    -0.300761     -0.365743     -0.365741 
 C554  C    -0.322142     -0.322143     -0.387043 
 C555  C    -0.365743     -0.300762     -0.365744 
 C556  C    -0.387044     -0.322138     -0.322141 
 C557  C    -0.365743     -0.365740     -0.300762 
 H558  H    -0.266945     -0.382696     -0.382693 
 H559  H    -0.382697     -0.266949     -0.382701 
 H560  H    -0.382697     -0.382693     -0.266947 
 C561  C    -0.322134      0.112961      0.177859 
 C562  C    -0.365736      0.134258      0.199241 
 C563  C    -0.387038      0.177859      0.177864 
 C564  C    -0.365739      0.199244      0.134264 
 C565  C    -0.322138      0.177869      0.112960 
 C566  C    -0.300758      0.134265      0.134256 
 H567  H    -0.382690      0.117300      0.233053 
 H568  H    -0.382696      0.233060      0.117314 
 H569  H    -0.266947      0.117310      0.117298 
 C570  C     0.177860     -0.322143      0.112959 
 C571  C     0.199238     -0.365744      0.134261 
 C572  C     0.177857     -0.387041      0.177862 
 C573  C     0.134258     -0.365737      0.199243 
 C574  C     0.112957     -0.322135      0.177862 
 C575  C     0.134258     -0.300761      0.134257 
 H576  H     0.233052     -0.382699      0.117308 
 H577  H     0.117305     -0.382687      0.233059 
 H578  H     0.117303     -0.266950      0.117298 
 C579  C     0.177861      0.177866     -0.387040 
 C580  C     0.134259      0.199242     -0.365738 
 C581  C     0.112960      0.177857     -0.322138 
 C582  C     0.134261      0.134255     -0.300760 
 C583  C     0.177865      0.112960     -0.322139 
 C584  C     0.199242      0.134263     -0.365741 
 H585  H     0.117304      0.233057     -0.382688 
 H586  H     0.117305      0.117297     -0.266949 
 H587  H     0.233056      0.117311     -0.382696 
 C588  C    -0.387039     -0.322142      0.322142 
 C589  C    -0.365738     -0.365743      0.300763 
 C590  C    -0.322136     -0.387045      0.322142 
 C591  C    -0.300756     -0.365745      0.365743 
 C592  C    -0.322138     -0.322146      0.387045 
 C593  C    -0.365740     -0.300766      0.365746 
 H594  H    -0.382691     -0.382697      0.266948 
 H595  H    -0.266939     -0.382696      0.382694 
 H596  H    -0.382695     -0.266954      0.382703 
 C597  C    -0.322138      0.112963     -0.177859 
 C598  C    -0.365741      0.134260     -0.199240 
 C599  C    -0.387043      0.177862     -0.177864 
 C600  C    -0.365744      0.199248     -0.134264 
 C601  C    -0.322142      0.177872     -0.112960 
 C602  C    -0.300763      0.134268     -0.134256 
 H603  H    -0.382694      0.117303     -0.233053 
 H604  H    -0.382700      0.233064     -0.117315 
 H605  H    -0.266952      0.117313     -0.117297 
 C606  C     0.177865     -0.322144     -0.112956 
 C607  C     0.134263     -0.300757     -0.134250 
 C608  C     0.112958     -0.322126     -0.177855 
 C609  C     0.134252     -0.365729     -0.199240 
 C610  C     0.177851     -0.387039     -0.177866 
 C611  C     0.199238     -0.365745     -0.134264 
 H612  H     0.117313     -0.266945     -0.117288 
 H613  H     0.117293     -0.382676     -0.233055 
 H614  H     0.233053     -0.382705     -0.117317 
 C615  C     0.177870      0.112958      0.322141 
 C616  C     0.199243      0.134266      0.365743 
 C617  C     0.177857      0.177868      0.387037 
 C618  C     0.134254      0.199239      0.365730 
 C619  C     0.112959      0.177850      0.322130 
 C620  C     0.134266      0.134249      0.300757 
 H621  H     0.233056      0.117317      0.382704 
 H622  H     0.117294      0.233053      0.382677 
 H623  H     0.117316      0.117287      0.266945 
loop_  
_geom_bond_atom_site_label_1  
_geom_bond_atom_site_label_2  
C0   C1 
C0   C5 
C0   C242 
C1   C2 
C1   H6 
C2   C3 
C2   C344 
C3   C4 
C3   H7 
C4   C5 
C4   C408 
C5   H8 
Cu9   Cu10 
Cu9   O13 
Cu9   O16 
Cu9   O19 
Cu9   O22 
Cu10   O11 
Cu10   O14 
Cu10   O17 
Cu10   O20 
O11   C12 
C12   O13 
C12   C383 
O14   C15 
C15   O16 
C15   C615 
O17   C18 
C18   O19 
C18   C229 
O20   C21 
C21   O22 
C21   C534 
C23   C24 
C23   C28 
C23   C425 
C24   C25 
C24   H29 
C25   C26 
C25   C313 
C26   C27 
C26   H30 
C27   C28 
C27   C216 
C28   H31 
Cu32   Cu33 
Cu32   O36 
Cu32   O39 
Cu32   O42 
Cu32   O45 
Cu33   O34 
Cu33   O37 
Cu33   O40 
Cu33   O43 
O34   C35 
C35   O36 
C35   C610 
O37   C38 
C38   O39 
C38   C374 
O40   C41 
C41   O42 
C41   C520 
O43   C44 
C44   O45 
C44   C206 
C46   C47 
C46   C51 
C46   C308 
C47   C48 
C47   H52 
C48   C49 
C48   C394 
C49   C50 
C49   H53 
C50   C51 
C50   C288 
C51   H54 
Cu55   Cu56 
Cu55   O59 
Cu55   O62 
Cu55   O65 
Cu55   O68 
Cu56   O57 
Cu56   O60 
Cu56   O63 
Cu56   O66 
O57   C58 
C58   O59 
C58   C547 
O60   C61 
C61   O62 
C61   C277 
O63   C64 
C64   O65 
C64   C597 
O66   C67 
C67   O68 
C67   C361 
C69   C70 
C69   C74 
C69   C442 
C70   C71 
C70   H75 
C71   C72 
C71   C333 
C72   C73 
C72   H76 
C73   C74 
C73   C262 
C74   H77 
Cu78   Cu79 
Cu78   O82 
Cu78   O85 
Cu78   O88 
Cu78   O91 
Cu79   O80 
Cu79   O83 
Cu79   O86 
Cu79   O89 
O80   C81 
C81   O82 
C81   C252 
O83   C84 
C84   O85 
C84   C527 
O86   C87 
C87   O88 
C87   C354 
O89   C90 
C90   O91 
C90   C590 
Cu92   Cu93 
Cu92   O96 
Cu92   O99 
Cu92   O102 
Cu92   O105 
Cu93   O94 
Cu93   O97 
Cu93   O100 
Cu93   O103 
O94   C95 
C95   O96 
C95   C466 
O97   C98 
C98   O99 
C98   C372 
O100   C101 
C101   O102 
C101   C536 
O103   C104 
C104   O105 
C104   C498 
Cu106   Cu107 
Cu106   O110 
Cu106   O113 
Cu106   O116 
Cu106   O119 
Cu107   O108 
Cu107   O111 
Cu107   O114 
Cu107   O117 
O108   C109 
C109   O110 
C109   C250 
O111   C112 
C112   O113 
C112   C462 
O114   C115 
C115   O116 
C115   C509 
O117   C118 
C118   O119 
C118   C619 
Cu120   Cu121 
Cu120   O124 
Cu120   O127 
Cu120   O130 
Cu120   O133 
Cu121   O122 
Cu121   O125 
Cu121   O128 
Cu121   O131 
O122   C123 
C123   O124 
C123   C446 
O125   C126 
C126   O127 
C126   C356 
O128   C129 
C129   O130 
C129   C543 
O131   C132 
C132   O133 
C132   C507 
Cu134   Cu135 
Cu134   O138 
Cu134   O141 
Cu134   O144 
Cu134   O147 
Cu135   O136 
Cu135   O139 
Cu135   O142 
Cu135   O145 
O136   C137 
C137   O138 
C137   C455 
O139   C140 
C140   O141 
C140   C227 
O142   C143 
C143   O144 
C143   C588 
O145   C146 
C146   O147 
C146   C480 
Cu148   Cu149 
Cu148   O152 
Cu148   O155 
Cu148   O158 
Cu148   O161 
Cu149   O150 
Cu149   O153 
Cu149   O156 
Cu149   O159 
O150   C151 
C151   O152 
C151   C493 
O153   C154 
C154   O155 
C154   C529 
O156   C157 
C157   O158 
C157   C365 
O159   C160 
C160   O161 
C160   C457 
Cu162   Cu163 
Cu162   O166 
Cu162   O169 
Cu162   O172 
Cu162   O175 
Cu163   O164 
Cu163   O167 
Cu163   O170 
Cu163   O173 
O164   C165 
C165   O166 
C165   C471 
O167   C168 
C168   O169 
C168   C275 
O170   C171 
C171   O172 
C171   C608 
O173   C174 
C174   O175 
C174   C489 
Cu176   Cu177 
Cu176   O180 
Cu176   O183 
Cu176   O186 
Cu176   O189 
Cu177   O178 
Cu177   O181 
Cu177   O184 
Cu177   O187 
O178   C179 
C179   O180 
C179   C484 
O181   C182 
C182   O183 
C182   C518 
O184   C185 
C185   O186 
C185   C379 
O187   C188 
C188   O189 
C188   C473 
Cu190   Cu191 
Cu190   O194 
Cu190   O197 
Cu190   O200 
Cu190   O203 
Cu191   O192 
Cu191   O195 
Cu191   O198 
Cu191   O201 
O192   C193 
C193   O194 
C193   C500 
O195   C196 
C196   O197 
C196   C599 
O198   C199 
C199   O200 
C199   C208 
O201   C202 
C202   O203 
C202   C444 
C204   C205 
C204   C209 
C204   C405 
C205   C206 
C205   H210 
C206   C207 
C207   C208 
C207   H211 
C208   C209 
C209   H212 
Cu213   Cu214 
Cu213   O217 
Cu213   O220 
Cu213   O223 
Cu213   O226 
Cu214   O215 
Cu214   O218 
Cu214   O221 
Cu214   O224 
O215   C216 
C216   O217 
O218   C219 
C219   O220 
C219   C502 
O221   C222 
C222   O223 
C222   C475 
O224   C225 
C225   O226 
C225   C583 
C227   C228 
C227   C232 
C228   C229 
C228   H233 
C229   C230 
C230   C231 
C230   H234 
C231   C232 
C231   C428 
C232   H235 
Cu236   Cu237 
Cu236   O240 
Cu236   O243 
Cu236   O246 
Cu236   O249 
Cu237   O238 
Cu237   O241 
Cu237   O244 
Cu237   O247 
O238   C239 
C239   O240 
C239   C482 
O241   C242 
C242   O243 
O244   C245 
C245   O246 
C245   C572 
O247   C248 
C248   O249 
C248   C464 
C250   C251 
C250   C255 
C251   C252 
C251   H256 
C252   C253 
C253   C254 
C253   H257 
C254   C255 
C254   C391 
C255   H258 
Cu259   Cu260 
Cu259   O263 
Cu259   O266 
Cu259   O269 
Cu259   O272 
Cu260   O261 
Cu260   O264 
Cu260   O267 
Cu260   O270 
O261   C262 
C262   O263 
O264   C265 
C265   O266 
C265   C511 
O267   C268 
C268   O269 
C268   C453 
O270   C271 
C271   O272 
C271   C561 
C273   C274 
C273   C278 
C273   C436 
C274   C275 
C274   H279 
C275   C276 
C276   C277 
C276   H280 
C277   C278 
C278   H281 
Cu282   Cu283 
Cu282   O286 
Cu282   O289 
Cu282   O292 
Cu282   O295 
Cu283   O284 
Cu283   O287 
Cu283   O290 
Cu283   O293 
O284   C285 
C285   O286 
C285   C491 
O287   C288 
C288   O289 
O290   C291 
C291   O292 
C291   C552 
O293   C294 
C294   O295 
C294   C448 
Cu296   Cu297 
Cu296   O300 
Cu296   O303 
Cu296   O306 
Cu296   O309 
Cu297   O298 
Cu297   O301 
Cu297   O304 
Cu297   O307 
O298   C299 
C299   O300 
C299   C581 
O301   C302 
C302   O303 
C302   C545 
O304   C305 
C305   O306 
C305   C370 
O307   C308 
C308   O309 
Cu310   Cu311 
Cu310   O314 
Cu310   O317 
Cu310   O320 
Cu310   O323 
Cu311   O312 
Cu311   O315 
Cu311   O318 
Cu311   O321 
O312   C313 
C313   O314 
O315   C316 
C316   O317 
C316   C363 
O318   C319 
C319   O320 
C319   C516 
O321   C322 
C322   O323 
C322   C556 
Cu324   Cu325 
Cu324   O328 
Cu324   O331 
Cu324   O334 
Cu324   O337 
Cu325   O326 
Cu325   O329 
Cu325   O332 
Cu325   O335 
O326   C327 
C327   O328 
C327   C525 
O329   C330 
C330   O331 
C330   C574 
O332   C333 
C333   O334 
O335   C336 
C336   O337 
C336   C381 
Cu338   Cu339 
Cu338   O342 
Cu338   O345 
Cu338   O348 
Cu338   O351 
Cu339   O340 
Cu339   O343 
Cu339   O346 
Cu339   O349 
O340   C341 
C341   O342 
C341   C352 
O343   C344 
C344   O345 
O346   C347 
C347   O348 
C347   C563 
O349   C350 
C350   O351 
C350   C538 
C352   C353 
C352   C357 
C353   C354 
C353   H358 
C354   C355 
C355   C356 
C355   H359 
C356   C357 
C357   H360 
C361   C362 
C361   C366 
C362   C363 
C362   H367 
C363   C364 
C364   C365 
C364   H368 
C365   C366 
C366   H369 
C370   C371 
C370   C375 
C371   C372 
C371   H376 
C372   C373 
C373   C374 
C373   H377 
C374   C375 
C375   H378 
C379   C380 
C379   C384 
C380   C381 
C380   H385 
C381   C382 
C382   C383 
C382   H386 
C383   C384 
C384   H387 
Cu388   Cu389 
Cu388   O392 
Cu388   O395 
Cu388   O398 
Cu388   O401 
Cu389   O390 
Cu389   O393 
Cu389   O396 
Cu389   O399 
O390   C391 
C391   O392 
O393   C394 
C394   O395 
O396   C397 
C397   O398 
C397   C565 
O399   C400 
C400   O401 
C400   C601 
Cu402   Cu403 
Cu402   O406 
Cu402   O409 
Cu402   O412 
Cu402   O415 
Cu403   O404 
Cu403   O407 
Cu403   O410 
Cu403   O413 
O404   C405 
C405   O406 
O407   C408 
C408   O409 
O410   C411 
C411   O412 
C411   C579 
O413   C414 
C414   O415 
C414   C617 
Cu416   Cu417 
Cu416   O420 
Cu416   O423 
Cu416   O426 
Cu416   O429 
Cu417   O418 
Cu417   O421 
Cu417   O424 
Cu417   O427 
O418   C419 
C419   O420 
C419   C606 
O421   C422 
C422   O423 
C422   C570 
O424   C425 
C425   O426 
O427   C428 
C428   O429 
Cu430   Cu431 
Cu430   O434 
Cu430   O437 
Cu430   O440 
Cu430   O443 
Cu431   O432 
Cu431   O435 
Cu431   O438 
Cu431   O441 
O432   C433 
C433   O434 
C433   C554 
O435   C436 
C436   O437 
O438   C439 
C439   O440 
C439   C592 
O441   C442 
C442   O443 
C444   C445 
C444   C449 
C445   C446 
C445   H450 
C446   C447 
C447   C448 
C447   H451 
C448   C449 
C449   H452 
C453   C454 
C453   C458 
C454   C455 
C454   H459 
C455   C456 
C456   C457 
C456   H460 
C457   C458 
C458   H461 
C462   C463 
C462   C467 
C463   C464 
C463   H468 
C464   C465 
C465   C466 
C465   H469 
C466   C467 
C467   H470 
C471   C472 
C471   C476 
C472   C473 
C472   H477 
C473   C474 
C474   C475 
C474   H478 
C475   C476 
C476   H479 
C480   C481 
C480   C485 
C481   C482 
C481   H486 
C482   C483 
C483   C484 
C483   H487 
C484   C485 
C485   H488 
C489   C490 
C489   C494 
C490   C491 
C490   H495 
C491   C492 
C492   C493 
C492   H496 
C493   C494 
C494   H497 
C498   C499 
C498   C503 
C499   C500 
C499   H504 
C500   C501 
C501   C502 
C501   H505 
C502   C503 
C503   H506 
C507   C508 
C507   C512 
C508   C509 
C508   H513 
C509   C510 
C510   C511 
C510   H514 
C511   C512 
C512   H515 
C516   C517 
C516   C521 
C517   C518 
C517   H522 
C518   C519 
C519   C520 
C519   H523 
C520   C521 
C521   H524 
C525   C526 
C525   C530 
C526   C527 
C526   H531 
C527   C528 
C528   C529 
C528   H532 
C529   C530 
C530   H533 
C534   C535 
C534   C539 
C535   C536 
C535   H540 
C536   C537 
C537   C538 
C537   H541 
C538   C539 
C539   H542 
C543   C544 
C543   C548 
C544   C545 
C544   H549 
C545   C546 
C546   C547 
C546   H550 
C547   C548 
C548   H551 
C552   C553 
C552   C557 
C553   C554 
C553   H558 
C554   C555 
C555   C556 
C555   H559 
C556   C557 
C557   H560 
C561   C562 
C561   C566 
C562   C563 
C562   H567 
C563   C564 
C564   C565 
C564   H568 
C565   C566 
C566   H569 
C570   C571 
C570   C575 
C571   C572 
C571   H576 
C572   C573 
C573   C574 
C573   H577 
C574   C575 
C575   H578 
C579   C580 
C579   C584 
C580   C581 
C580   H585 
C581   C582 
C582   C583 
C582   H586 
C583   C584 
C584   H587 
C588   C589 
C588   C593 
C589   C590 
C589   H594 
C590   C591 
C591   C592 
C591   H595 
C592   C593 
C593   H596 
C597   C598 
C597   C602 
C598   C599 
C598   H603 
C599   C600 
C600   C601 
C600   H604 
C601   C602 
C602   H605 
C606   C607 
C606   C611 
C607   C608 
C607   H612 
C608   C609 
C609   C610 
C609   H613 
C610   C611 
C611   H614 
C615   C616 
C615   C620 
C616   C617 
C616   H621 
C617   C618 
C618   C619 
C618   H622 
C619   C620 
C620   H623 
  
#END  
