####################################################################### 
# 
# This file contains crystal structure data downloaded from the 
# Cambridge Structural Database (CSD) hosted by the Cambridge 
# Crystallographic Data Centre (CCDC).
# 
# Full information about CCDC data access policies and citation 
# guidelines are available at http://www.ccdc.cam.ac.uk/access/V1 
# 
# Audit and citation data items may have been added by the CCDC. 
# Please retain this information to preserve the provenance of 
# this file and to allow appropriate attribution of the data. 
# 
#######################################################################

data_110merge
_audit_block_doi                 10.5517/ccdc.csd.cc207byk
_database_code_depnum_ccdc_archive 'CCDC 1854108'
loop_
_citation_id
_citation_doi
_citation_year
1 10.1016/j.electacta.2018.12.081 2018
loop_
_audit_author_name
_audit_author_address
'DAVID TURNER'
;Monash University
Australia
;
_audit_update_record             
;
2018-07-06 deposited with the CCDC.	2024-09-16 downloaded from the CCDC.
;
_audit_creation_date             2018-03-08
_audit_creation_method           
;
Olex2 1.2
(compiled 2017.08.10 svn.r3458 for OlexSys, GUI svn.r5381)
;
_shelx_SHELXL_version_number     2017/1
_chemical_name_common            ?
_chemical_name_systematic        ?
_chemical_formula_moiety         
'C14 H10 Co N2 O4, 0.25(C3 H7 N O), 0.25(C10 H8 N2)'
_chemical_formula_sum            'C17.25 H13.75 Co N2.75 O4.25'
_chemical_formula_weight         386.49
_chemical_melting_point          ?
loop_
_atom_type_symbol
_atom_type_description
_atom_type_scat_dispersion_real
_atom_type_scat_dispersion_imag
_atom_type_scat_source
C C 0.0030 0.0020 'International Tables Vol C Tables 4.2.6.8 and 6.1.1.4'
H H 0.0000 0.0000 'International Tables Vol C Tables 4.2.6.8 and 6.1.1.4'
N N 0.0070 0.0030 'International Tables Vol C Tables 4.2.6.8 and 6.1.1.4'
O O 0.0120 0.0060 'International Tables Vol C Tables 4.2.6.8 and 6.1.1.4'
Co Co 0.3570 0.9660 'International Tables Vol C Tables 4.2.6.8 and 6.1.1.4'

_shelx_space_group_comment       
;
The symmetry employed for this shelxl refinement is uniquely defined
by the following loop, which should always be used as a source of
symmetry information in preference to the above space-group names.
They are only intended as comments.
;
_space_group_crystal_system      triclinic
_space_group_IT_number           2
_space_group_name_H-M_alt        'P -1'
_space_group_name_Hall           '-P 1'
loop_
_space_group_symop_operation_xyz
'x, y, z'
'-x, -y, -z'

_cell_length_a                   7.4200(15)
_cell_length_b                   9.773(2)
_cell_length_c                   11.601(2)
_cell_angle_alpha                105.38(3)
_cell_angle_beta                 106.32(3)
_cell_angle_gamma                93.38(3)
_cell_volume                     770.3(3)
_cell_formula_units_Z            2
_cell_measurement_reflns_used    20001
_cell_measurement_temperature    100(2)
_cell_measurement_theta_max      27.894
_cell_measurement_theta_min      2.184
_shelx_estimated_absorpt_T_max   ?
_shelx_estimated_absorpt_T_min   ?
_exptl_absorpt_coefficient_mu    1.139
_exptl_absorpt_correction_T_max  ?
_exptl_absorpt_correction_T_min  ?
_exptl_absorpt_correction_type   none
_exptl_absorpt_process_details   ?
_exptl_absorpt_special_details   ?
_exptl_crystal_colour            pink
_exptl_crystal_density_diffrn    1.666
_exptl_crystal_density_meas      ?
_exptl_crystal_density_method    ?
_exptl_crystal_description       block
_exptl_crystal_F_000             376
_exptl_crystal_size_max          0.08
_exptl_crystal_size_mid          0.05
_exptl_crystal_size_min          0.03
_exptl_transmission_factor_max   ?
_exptl_transmission_factor_min   ?
_diffrn_reflns_av_R_equivalents  0.0378
_diffrn_reflns_av_unetI/netI     0.0201
_diffrn_reflns_Laue_measured_fraction_full 0.989
_diffrn_reflns_Laue_measured_fraction_max 0.987
_diffrn_reflns_limit_h_max       9
_diffrn_reflns_limit_h_min       -9
_diffrn_reflns_limit_k_max       12
_diffrn_reflns_limit_k_min       -12
_diffrn_reflns_limit_l_max       15
_diffrn_reflns_limit_l_min       -15
_diffrn_reflns_number            20001
_diffrn_reflns_point_group_measured_fraction_full 0.989
_diffrn_reflns_point_group_measured_fraction_max 0.987
_diffrn_reflns_theta_full        27.500
_diffrn_reflns_theta_max         27.894
_diffrn_reflns_theta_min         2.184
_diffrn_ambient_temperature      100.15
_diffrn_detector_area_resol_mean ?
_diffrn_measured_fraction_theta_full 0.989
_diffrn_measured_fraction_theta_max 0.987
_diffrn_measurement_device_type  'ADSC Quantum 210r'
_diffrn_measurement_method       'phi scans'
_diffrn_radiation_monochromator  'silicon double crystal'
_diffrn_radiation_type           synchrotron
_diffrn_radiation_wavelength     0.7108
_diffrn_source                   'Australian Synchrotron MX1'
_diffrn_standards_number         0
_reflns_Friedel_coverage         0.000
_reflns_Friedel_fraction_full    .
_reflns_Friedel_fraction_max     .
_reflns_number_gt                3303
_reflns_number_total             3624
_reflns_special_details          
;
 Reflections were merged by SHELXL according to the crystal
 class for the calculation of statistics and refinement.
 
 _reflns_Friedel_fraction is defined as the number of unique
 Friedel pairs measured divided by the number that would be
 possible theoretically, ignoring centric projections and
 systematic absences.
;
_reflns_threshold_expression     'I > 2\s(I)'
_computing_cell_refinement       'XDS (Kabsch, 1993)'
_computing_data_collection       'BluICE (McPhillips et al, 2001)'
_computing_data_reduction        'XDS (Kabsch, 1993)'
_computing_molecular_graphics    'Olex2 (Dolomanov et al., 2009)'
_computing_publication_material  'Olex2 (Dolomanov et al., 2009)'
_computing_structure_refinement  'ShelXL (Sheldrick, 2015)'
_computing_structure_solution    ?
_refine_diff_density_max         0.651
_refine_diff_density_min         -0.683
_refine_diff_density_rms         0.084
_refine_ls_extinction_coef       .
_refine_ls_extinction_method     none
_refine_ls_goodness_of_fit_ref   1.059
_refine_ls_hydrogen_treatment    constr
_refine_ls_matrix_type           full
_refine_ls_number_parameters     224
_refine_ls_number_reflns         3624
_refine_ls_number_restraints     4
_refine_ls_R_factor_all          0.0443
_refine_ls_R_factor_gt           0.0413
_refine_ls_restrained_S_all      1.062
_refine_ls_shift/su_max          0.001
_refine_ls_shift/su_mean         0.000
_refine_ls_structure_factor_coef Fsqd
_refine_ls_weighting_details     
'w=1/[\s^2^(Fo^2^)+(0.0412P)^2^+1.6278P] where P=(Fo^2^+2Fc^2^)/3'
_refine_ls_weighting_scheme      calc
_refine_ls_wR_factor_gt          0.1045
_refine_ls_wR_factor_ref         0.1066
_refine_special_details          ?
_olex2_refinement_description    
;
1. Fixed Uiso
 At 1.2 times of:
  All C(H) groups
 At 1.5 times of:
  All C(H,H,H) groups
2. Restrained distances
 O5-C20
 1.2 with sigma of 0.02
 C21-N4
 1.45 with sigma of 0.02
 N4-C22
 1.45 with sigma of 0.02
 C20-N4
 1.35 with sigma of 0.02
3. Others
 Fixed Sof: O5(0.25) N4(0.25) C20(0.25) H20(0.25) C21(0.25) H21A(0.25)
 H21B(0.25) H21C(0.25) C22(0.25) H22A(0.25) H22B(0.25) H22C(0.25) N3(0.5)
 C15(0.5) H15(0.5) C16(0.5) H16(0.5) C17(0.5) C18(0.5) H18(0.5) C19(0.5)
 H19(0.5)
4.a Aromatic/amide H refined with riding coordinates:
 C2(H2), C4(H4), C5(H5), C6(H6), C8(H8), C9(H9), C10(H10), C11(H11), C13(H13),
 C14(H14), C20(H20), C15(H15), C16(H16), C18(H18), C19(H19)
4.b Fitted hexagon refined as free rotating group:
 N3(C15,C16,C17,C18,C19)
4.c Idealised Me refined as rotating group:
 C21(H21A,H21B,H21C), C22(H22A,H22B,H22C)
;
_atom_sites_solution_hydrogens   geom
_atom_sites_solution_primary     ?
_atom_sites_solution_secondary   ?
loop_
_atom_site_label
_atom_site_type_symbol
_atom_site_fract_x
_atom_site_fract_y
_atom_site_fract_z
_atom_site_U_iso_or_equiv
_atom_site_adp_type
_atom_site_occupancy
_atom_site_site_symmetry_order
_atom_site_calc_flag
_atom_site_refinement_flags_posn
_atom_site_refinement_flags_adp
_atom_site_refinement_flags_occupancy
_atom_site_disorder_assembly
_atom_site_disorder_group
Co1 Co 0.50037(3) 0.74874(3) 0.50298(2) 0.00958(11) Uani 1 1 d . . . . .
O1 O 0.5898(2) 0.89942(16) 0.42736(14) 0.0132(3) Uani 1 1 d . . . . .
O2 O 0.7107(2) 1.12617(16) 0.45881(15) 0.0155(3) Uani 1 1 d . . . . .
O3 O 0.4119(2) 0.59945(16) 0.58018(14) 0.0144(3) Uani 1 1 d . . . . .
O4 O 0.2861(2) 0.37081(16) 0.53732(15) 0.0146(3) Uani 1 1 d . . . . .
N1 N 0.7010(2) 0.84594(19) 0.68558(16) 0.0127(3) Uani 1 1 d . . . . .
N2 N 0.3028(3) 0.6529(2) 0.31482(18) 0.0200(4) Uani 1 1 d . . . . .
C1 C 0.7268(3) 0.9978(2) 0.45767(19) 0.0120(4) Uani 1 1 d . . . . .
C2 C 0.9219(3) 0.9564(2) 0.4912(2) 0.0136(4) Uani 1 1 d . . . . .
H2 H 0.934534 0.863332 0.500241 0.016 Uiso 1 1 calc R . . . .
C3 C 0.2740(3) 0.5020(2) 0.54991(19) 0.0122(4) Uani 1 1 d . . . . .
C4 C 0.0797(3) 0.5464(2) 0.5291(2) 0.0143(4) Uani 1 1 d . . . . .
H4 H 0.069979 0.645222 0.558805 0.017 Uiso 1 1 calc R . . . .
C5 C 0.1158(3) 0.6469(3) 0.2854(2) 0.0252(5) Uani 1 1 d . . . . .
H5 H 0.062863 0.685590 0.350679 0.030 Uiso 1 1 calc R . . . .
C6 C -0.0072(4) 0.5866(3) 0.1637(2) 0.0309(6) Uani 1 1 d . . . . .
H6 H -0.140380 0.583111 0.148281 0.037 Uiso 1 1 calc R . . . .
C7 C 0.0634(4) 0.5322(3) 0.0660(2) 0.0252(5) Uani 1 1 d . . . . .
C8 C 0.2591(5) 0.5400(5) 0.0966(3) 0.0605(12) Uani 1 1 d . . . . .
H8 H 0.316111 0.504034 0.033009 0.073 Uiso 1 1 calc R . . . .
C9 C 0.3715(4) 0.6006(5) 0.2206(3) 0.0546(11) Uani 1 1 d . . . . .
H9 H 0.505132 0.604753 0.239086 0.065 Uiso 1 1 calc R . . . .
C10 C 0.7328(3) 0.9872(2) 0.7398(2) 0.0177(4) Uani 1 1 d . . . . .
H10 H 0.672579 1.046914 0.692580 0.021 Uiso 1 1 calc R . . . .
C11 C 0.8498(3) 1.0513(2) 0.8620(2) 0.0205(5) Uani 1 1 d . . . . .
H11 H 0.868210 1.152693 0.896333 0.025 Uiso 1 1 calc R . . . .
C12 C 0.9398(3) 0.9679(2) 0.93405(19) 0.0140(4) Uani 1 1 d . . . . .
C13 C 0.9089(4) 0.8210(2) 0.8760(2) 0.0278(6) Uani 1 1 d . . . . .
H13 H 0.968911 0.758794 0.920414 0.033 Uiso 1 1 calc R . . . .
C14 C 0.7905(4) 0.7648(2) 0.7533(2) 0.0248(5) Uani 1 1 d . . . . .
H14 H 0.772269 0.663994 0.715721 0.030 Uiso 1 1 calc R . . . .
O5 O 0.3869(19) 1.2335(14) 0.9386(13) 0.068(3) Uiso 0.25 1 d D . P A -2
N4 N 0.4378(14) 1.0125(12) 0.9418(9) 0.033(2) Uiso 0.25 1 d D . P A -2
C20 C 0.368(3) 1.1057(18) 0.8857(16) 0.049(5) Uiso 0.25 1 d D . P A -2
H20 H 0.298354 1.071848 0.798851 0.059 Uiso 0.25 1 calc R . P A -2
C21 C 0.5622(15) 1.0686(13) 1.0723(9) 0.025(2) Uiso 0.25 1 d D . P A -2
H21A H 0.691239 1.048125 1.076400 0.038 Uiso 0.25 1 calc GR . P A -2
H21B H 0.514660 1.022583 1.125554 0.038 Uiso 0.25 1 calc GR . P A -2
H21C H 0.563781 1.172487 1.101893 0.038 Uiso 0.25 1 calc GR . P A -2
C22 C 0.406(3) 0.8671(17) 0.8839(18) 0.061(4) Uiso 0.25 1 d D . P A -2
H22A H 0.517993 0.837551 0.860241 0.092 Uiso 0.25 1 calc GR . P A -2
H22B H 0.295639 0.843794 0.808406 0.092 Uiso 0.25 1 calc GR . P A -2
H22C H 0.382558 0.816379 0.941778 0.092 Uiso 0.25 1 calc GR . P A -2
N3 N 0.4246(11) 1.3350(6) 0.9566(7) 0.093(3) Uiso 0.5 1 d . . P B 1
C15 C 0.5330(10) 1.3272(6) 1.0732(6) 0.075(3) Uiso 0.5 1 d G . P B 1
H15 H 0.586262 1.412585 1.140342 0.090 Uiso 0.5 1 calc R . P B 1
C16 C 0.5634(10) 1.1945(7) 1.0916(5) 0.070(2) Uiso 0.5 1 d G . P B 1
H16 H 0.637429 1.189192 1.171255 0.083 Uiso 0.5 1 calc R . P B 1
C17 C 0.4854(10) 1.0696(6) 0.9934(6) 0.0562(19) Uiso 0.5 1 d G . P B 1
C18 C 0.3770(12) 1.0774(6) 0.8768(6) 0.069(4) Uiso 0.5 1 d G . P B 1
H18 H 0.323724 0.991979 0.809633 0.082 Uiso 0.5 1 calc R . P B 1
C19 C 0.3466(12) 1.2101(8) 0.8584(6) 0.098(4) Uiso 0.5 1 d G . P B 1
H19 H 0.272555 1.215371 0.778718 0.118 Uiso 0.5 1 calc R . P B 1

loop_
_atom_site_aniso_label
_atom_site_aniso_U_11
_atom_site_aniso_U_22
_atom_site_aniso_U_33
_atom_site_aniso_U_23
_atom_site_aniso_U_13
_atom_site_aniso_U_12
Co1 0.00705(15) 0.00856(15) 0.01067(16) 0.00246(10) -0.00057(10) 0.00026(10)
O1 0.0109(7) 0.0130(7) 0.0150(7) 0.0053(5) 0.0019(5) 0.0006(5)
O2 0.0118(7) 0.0129(7) 0.0240(8) 0.0084(6) 0.0056(6) 0.0031(5)
O3 0.0116(7) 0.0126(7) 0.0179(7) 0.0045(6) 0.0032(6) -0.0003(5)
O4 0.0123(7) 0.0111(7) 0.0203(7) 0.0045(6) 0.0046(6) 0.0026(5)
N1 0.0096(8) 0.0133(8) 0.0120(8) 0.0028(6) -0.0005(6) 0.0005(6)
N2 0.0189(9) 0.0194(9) 0.0143(9) 0.0041(7) -0.0041(7) -0.0029(7)
C1 0.0105(9) 0.0139(9) 0.0122(9) 0.0050(7) 0.0032(7) 0.0030(7)
C2 0.0118(9) 0.0133(9) 0.0166(9) 0.0060(7) 0.0037(7) 0.0043(8)
C3 0.0116(9) 0.0119(9) 0.0122(9) 0.0032(7) 0.0029(7) 0.0018(7)
C4 0.0123(10) 0.0115(9) 0.0187(10) 0.0041(7) 0.0044(8) 0.0030(8)
C5 0.0177(11) 0.0337(13) 0.0155(10) 0.0045(9) -0.0041(9) -0.0043(9)
C6 0.0162(11) 0.0473(16) 0.0178(11) 0.0060(11) -0.0064(9) -0.0071(11)
C7 0.0278(13) 0.0229(12) 0.0154(11) 0.0060(9) -0.0063(10) -0.0080(10)
C8 0.0270(16) 0.111(3) 0.0156(13) -0.0132(17) -0.0050(11) 0.0008(18)
C9 0.0211(14) 0.100(3) 0.0175(13) -0.0100(16) -0.0064(11) 0.0035(16)
C10 0.0208(11) 0.0122(9) 0.0141(9) 0.0038(8) -0.0037(8) 0.0022(8)
C11 0.0272(12) 0.0103(9) 0.0150(10) 0.0016(8) -0.0052(9) 0.0017(8)
C12 0.0116(9) 0.0143(9) 0.0125(10) 0.0032(8) -0.0009(8) 0.0000(7)
C13 0.0380(14) 0.0134(11) 0.0178(11) 0.0034(9) -0.0123(10) 0.0043(10)
C14 0.0323(13) 0.0116(10) 0.0173(11) 0.0013(8) -0.0100(9) 0.0025(9)

_geom_special_details            
;
 All esds (except the esd in the dihedral angle between two l.s. planes)
 are estimated using the full covariance matrix.  The cell esds are taken
 into account individually in the estimation of esds in distances, angles
 and torsion angles; correlations between esds in cell parameters are only
 used when they are defined by crystal symmetry.  An approximate (isotropic)
 treatment of cell esds is used for estimating esds involving l.s. planes.
;
loop_
_geom_bond_atom_site_label_1
_geom_bond_atom_site_label_2
_geom_bond_distance
_geom_bond_site_symmetry_2
_geom_bond_publ_flag
Co1 O1 2.0676(16) . ?
Co1 O2 2.1149(16) 2_676 ?
Co1 O3 2.0670(16) . ?
Co1 O4 2.1068(16) 2_666 ?
Co1 N1 2.145(2) . ?
Co1 N2 2.179(2) . ?
O1 C1 1.260(3) . ?
O2 C1 1.264(3) . ?
O3 C3 1.258(3) . ?
O4 C3 1.262(3) . ?
N1 C10 1.332(3) . ?
N1 C14 1.337(3) . ?
N2 C5 1.326(3) . ?
N2 C9 1.328(4) . ?
C1 C2 1.499(3) . ?
C2 C2 1.331(4) 2_776 ?
C2 H2 0.9500 . ?
C3 C4 1.503(3) . ?
C4 C4 1.333(4) 2_566 ?
C4 H4 0.9500 . ?
C5 H5 0.9500 . ?
C5 C6 1.395(3) . ?
C6 H6 0.9500 . ?
C6 C7 1.374(4) . ?
C7 C7 1.496(4) 2_565 ?
C7 C8 1.387(4) . ?
C8 H8 0.9500 . ?
C8 C9 1.390(4) . ?
C9 H9 0.9500 . ?
C10 H10 0.9500 . ?
C10 C11 1.390(3) . ?
C11 H11 0.9500 . ?
C11 C12 1.386(3) . ?
C12 C12 1.479(4) 2_777 ?
C12 C13 1.389(3) . ?
C13 H13 0.9500 . ?
C13 C14 1.387(3) . ?
C14 H14 0.9500 . ?
O5 C20 1.217(16) . ?
N4 C20 1.304(14) . ?
N4 C21 1.469(12) . ?
N4 C22 1.375(15) . ?
C20 H20 0.9500 . ?
C21 H21A 0.9800 . ?
C21 H21B 0.9800 . ?
C21 H21C 0.9800 . ?
C22 H22A 0.9800 . ?
C22 H22B 0.9800 . ?
C22 H22C 0.9800 . ?
N3 C15 1.3900 . ?
N3 C19 1.3900 . ?
C15 H15 0.9500 . ?
C15 C16 1.3900 . ?
C16 H16 0.9500 . ?
C16 C17 1.3900 . ?
C17 C17 1.431(9) 2_677 ?
C17 C18 1.3900 . ?
C18 H18 0.9500 . ?
C18 C19 1.3900 . ?
C19 H19 0.9500 . ?

loop_
_geom_angle_atom_site_label_1
_geom_angle_atom_site_label_2
_geom_angle_atom_site_label_3
_geom_angle
_geom_angle_site_symmetry_1
_geom_angle_site_symmetry_3
_geom_angle_publ_flag
O1 Co1 O2 88.65(6) . 2_676 ?
O1 Co1 O4 89.51(6) . 2_666 ?
O1 Co1 N1 93.52(7) . . ?
O1 Co1 N2 84.81(7) . . ?
O2 Co1 N1 93.82(7) 2_676 . ?
O2 Co1 N2 86.98(8) 2_676 . ?
O3 Co1 O1 179.48(6) . . ?
O3 Co1 O2 91.16(6) . 2_676 ?
O3 Co1 O4 90.68(6) . 2_666 ?
O3 Co1 N1 86.00(7) . . ?
O3 Co1 N2 95.67(7) . . ?
O4 Co1 O2 178.16(6) 2_666 2_676 ?
O4 Co1 N1 86.21(7) 2_666 . ?
O4 Co1 N2 92.94(8) 2_666 . ?
N1 Co1 N2 178.14(7) . . ?
C1 O1 Co1 137.76(14) . . ?
C1 O2 Co1 130.03(14) . 2_676 ?
C3 O3 Co1 137.11(14) . . ?
C3 O4 Co1 129.91(14) . 2_666 ?
C10 N1 Co1 122.21(14) . . ?
C10 N1 C14 117.12(18) . . ?
C14 N1 Co1 120.53(15) . . ?
C5 N2 Co1 124.62(17) . . ?
C5 N2 C9 116.5(2) . . ?
C9 N2 Co1 118.85(17) . . ?
O1 C1 O2 124.82(19) . . ?
O1 C1 C2 116.61(18) . . ?
O2 C1 C2 118.54(18) . . ?
C1 C2 H2 118.4 . . ?
C2 C2 C1 123.2(2) 2_776 . ?
C2 C2 H2 118.4 2_776 . ?
O3 C3 O4 125.35(19) . . ?
O3 C3 C4 117.01(18) . . ?
O4 C3 C4 117.63(18) . . ?
C3 C4 H4 118.5 . . ?
C4 C4 C3 123.1(2) 2_566 . ?
C4 C4 H4 118.5 2_566 . ?
N2 C5 H5 118.3 . . ?
N2 C5 C6 123.4(2) . . ?
C6 C5 H5 118.3 . . ?
C5 C6 H6 119.9 . . ?
C7 C6 C5 120.3(2) . . ?
C7 C6 H6 119.9 . . ?
C6 C7 C7 122.0(3) . 2_565 ?
C6 C7 C8 116.3(2) . . ?
C8 C7 C7 121.7(3) . 2_565 ?
C7 C8 H8 120.1 . . ?
C7 C8 C9 119.8(3) . . ?
C9 C8 H8 120.1 . . ?
N2 C9 C8 123.8(3) . . ?
N2 C9 H9 118.1 . . ?
C8 C9 H9 118.1 . . ?
N1 C10 H10 118.4 . . ?
N1 C10 C11 123.1(2) . . ?
C11 C10 H10 118.4 . . ?
C10 C11 H11 119.9 . . ?
C12 C11 C10 120.2(2) . . ?
C12 C11 H11 119.9 . . ?
C11 C12 C12 121.7(2) . 2_777 ?
C11 C12 C13 116.29(19) . . ?
C13 C12 C12 122.0(2) . 2_777 ?
C12 C13 H13 119.9 . . ?
C14 C13 C12 120.2(2) . . ?
C14 C13 H13 119.9 . . ?
N1 C14 C13 123.1(2) . . ?
N1 C14 H14 118.5 . . ?
C13 C14 H14 118.5 . . ?
C20 N4 C21 117.3(14) . . ?
C20 N4 C22 123.5(13) . . ?
C22 N4 C21 119.2(14) . . ?
O5 C20 N4 123.6(16) . . ?
O5 C20 H20 118.2 . . ?
N4 C20 H20 118.2 . . ?
N4 C21 H21A 109.5 . . ?
N4 C21 H21B 109.5 . . ?
N4 C21 H21C 109.5 . . ?
H21A C21 H21B 109.5 . . ?
H21A C21 H21C 109.5 . . ?
H21B C21 H21C 109.5 . . ?
N4 C22 H22A 109.5 . . ?
N4 C22 H22B 109.5 . . ?
N4 C22 H22C 109.5 . . ?
H22A C22 H22B 109.5 . . ?
H22A C22 H22C 109.5 . . ?
H22B C22 H22C 109.5 . . ?
C15 N3 C19 120.0 . . ?
N3 C15 H15 120.0 . . ?
C16 C15 N3 120.0 . . ?
C16 C15 H15 120.0 . . ?
C15 C16 H16 120.0 . . ?
C15 C16 C17 120.0 . . ?
C17 C16 H16 120.0 . . ?
C16 C17 C17 122.3(9) . 2_677 ?
C18 C17 C16 120.0 . . ?
C18 C17 C17 117.7(9) . 2_677 ?
C17 C18 H18 120.0 . . ?
C17 C18 C19 120.0 . . ?
C19 C18 H18 120.0 . . ?
N3 C19 H19 120.0 . . ?
C18 C19 N3 120.0 . . ?
C18 C19 H19 120.0 . . ?

_shelx_res_file                  
;
TITL p-1_a.res in P-1
    110merge.res
    created by SHELXL-2017/1 at 17:28:17 on 08-Mar-2018
REM Old TITL p-1 in P-1
REM SHELXT solution in P-1
REM R1 0.128, Rweak 0.003, Alpha 0.063, Orientation as input
REM Formula found by SHELXT: C14 N O5 Br
REM p-1_a.res in P-1
REM 214 parameters refined using 0 restraints
REM Highest difference peak 1.725, deepest hole -0.682, 1-sigma level 0.115
REM 222 parameters refined using 0 restraints
REM Highest difference peak 1.232, deepest hole -0.606, 1-sigma level 0.093
REM 226 parameters refined using 0 restraints
REM Highest difference peak 0.759, deepest hole -0.565, 1-sigma level 0.087
CELL 0.7108 7.42 9.773 11.601 105.378 106.322 93.377
ZERR 2 0.0015 0.002 0.0023 0.03 0.03 0.03
LATT 1
SFAC C H N O Co
DISP C 0.003 0.002 11.5
DISP Co 0.357 0.966 4010.338
DISP H -0 0 0.624
DISP N 0.007 0.003 19.595
DISP O 0.012 0.006 32.492
UNIT 35 20 4 8 2
DFIX 1.2 O5 C20
DFIX 1.45 C21 N4
DFIX 1.45 N4 C22
DFIX 1.35 C20 N4

L.S. 10
PLAN  20
TEMP -173
GRID
BOND $H
fmap 2
acta 55
MERG 2
OMIT -2 180
REM <olex2.extras>
REM <HklSrc "%.\\110merge.hkl">
REM </olex2.extras>

WGHT    0.041200    1.627800
FVAR       1.34959
CO1   5    0.500368    0.748740    0.502976    11.00000    0.00705    0.00856 =
         0.01067    0.00246   -0.00057    0.00026
O1    4    0.589783    0.899418    0.427365    11.00000    0.01091    0.01298 =
         0.01500    0.00533    0.00189    0.00057
O2    4    0.710720    1.126167    0.458814    11.00000    0.01179    0.01288 =
         0.02399    0.00843    0.00560    0.00314
O3    4    0.411900    0.599446    0.580180    11.00000    0.01156    0.01255 =
         0.01792    0.00448    0.00319   -0.00035
O4    4    0.286096    0.370809    0.537317    11.00000    0.01228    0.01112 =
         0.02028    0.00451    0.00463    0.00256
N1    3    0.700967    0.845941    0.685576    11.00000    0.00956    0.01326 =
         0.01204    0.00282   -0.00045    0.00046
N2    3    0.302769    0.652947    0.314821    11.00000    0.01894    0.01940 =
         0.01432    0.00412   -0.00413   -0.00290
C1    1    0.726781    0.997818    0.457669    11.00000    0.01052    0.01392 =
         0.01215    0.00504    0.00321    0.00303
C2    1    0.921850    0.956399    0.491169    11.00000    0.01183    0.01334 =
         0.01658    0.00602    0.00369    0.00426
AFIX  43
H2    2    0.934534    0.863332    0.500241    11.00000   -1.20000
AFIX   0
C3    1    0.274018    0.501951    0.549914    11.00000    0.01161    0.01189 =
         0.01223    0.00316    0.00290    0.00176
C4    1    0.079663    0.546386    0.529092    11.00000    0.01234    0.01147 =
         0.01868    0.00415    0.00435    0.00300
AFIX  43
H4    2    0.069979    0.645222    0.558805    11.00000   -1.20000
AFIX   0
C5    1    0.115762    0.646879    0.285446    11.00000    0.01769    0.03373 =
         0.01547    0.00447   -0.00415   -0.00430
AFIX  43
H5    2    0.062863    0.685590    0.350679    11.00000   -1.20000
AFIX   0
C6    1   -0.007242    0.586596    0.163723    11.00000    0.01621    0.04732 =
         0.01783    0.00599   -0.00639   -0.00714
AFIX  43
H6    2   -0.140380    0.583111    0.148281    11.00000   -1.20000
AFIX   0
C7    1    0.063379    0.532215    0.066031    11.00000    0.02779    0.02288 =
         0.01541    0.00600   -0.00631   -0.00801
C8    1    0.259073    0.539990    0.096609    11.00000    0.02703    0.11093 =
         0.01561   -0.01317   -0.00500    0.00083
AFIX  43
H8    2    0.316111    0.504034    0.033009    11.00000   -1.20000
AFIX   0
C9    1    0.371461    0.600577    0.220640    11.00000    0.02115    0.09994 =
         0.01747   -0.01002   -0.00636    0.00352
AFIX  43
H9    2    0.505132    0.604753    0.239086    11.00000   -1.20000
AFIX   0
C10   1    0.732779    0.987196    0.739765    11.00000    0.02075    0.01223 =
         0.01412    0.00383   -0.00372    0.00218
AFIX  43
H10   2    0.672579    1.046914    0.692580    11.00000   -1.20000
AFIX   0
C11   1    0.849827    1.051347    0.862023    11.00000    0.02716    0.01034 =
         0.01497    0.00161   -0.00517    0.00171
AFIX  43
H11   2    0.868210    1.152693    0.896333    11.00000   -1.20000
AFIX   0
C12   1    0.939825    0.967938    0.934055    11.00000    0.01157    0.01432 =
         0.01252    0.00318   -0.00094   -0.00004
C13   1    0.908861    0.820979    0.875984    11.00000    0.03795    0.01338 =
         0.01777    0.00341   -0.01235    0.00426
AFIX  43
H13   2    0.968911    0.758794    0.920414    11.00000   -1.20000
AFIX   0
C14   1    0.790528    0.764807    0.753331    11.00000    0.03232    0.01156 =
         0.01733    0.00130   -0.01003    0.00251
AFIX  43
H14   2    0.772269    0.663994    0.715721    11.00000   -1.20000
AFIX   0

PART -2
O5    4    0.386877    1.233496    0.938591    10.25000    0.06833
N4    3    0.437847    1.012534    0.941767    10.25000    0.03295
C20   1    0.367934    1.105651    0.885739    10.25000    0.04915
AFIX  43
H20   2    0.298354    1.071848    0.798851    10.25000   -1.20000
AFIX   0
C21   1    0.562240    1.068601    1.072271    10.25000    0.02542
AFIX 137
H21A  2    0.691239    1.048125    1.076400    10.25000   -1.50000
H21B  2    0.514660    1.022583    1.125554    10.25000   -1.50000
H21C  2    0.563781    1.172487    1.101893    10.25000   -1.50000
AFIX   0
C22   1    0.406237    0.867112    0.883888    10.25000    0.06132
AFIX 137
H22A  2    0.517993    0.837551    0.860241    10.25000   -1.50000
H22B  2    0.295639    0.843794    0.808406    10.25000   -1.50000
H22C  2    0.382558    0.816379    0.941778    10.25000   -1.50000
AFIX  66
PART 0
PART 1
N3    3    0.424599    1.334983    0.956624    10.50000    0.09296
C15   1    0.532969    1.327206    1.073210    10.50000    0.07516
AFIX  43
H15   2    0.586262    1.412585    1.140342    10.50000   -1.20000
AFIX  65
C16   1    0.563363    1.194507    1.091573    10.50000    0.06958
AFIX  43
H16   2    0.637429    1.189192    1.171255    10.50000   -1.20000
AFIX  65
C17   1    0.485387    1.069584    0.993350    10.50000    0.05619
C18   1    0.377017    1.077359    0.876764    10.50000    0.06865
AFIX  43
H18   2    0.323724    0.991979    0.809633    10.50000   -1.20000
AFIX  65
C19   1    0.346621    1.210057    0.858399    10.50000    0.09839
AFIX  43
H19   2    0.272555    1.215371    0.778718    10.50000   -1.20000
AFIX   0
HKLF 4




REM  p-1_a.res in P-1
REM R1 =  0.0413 for    3303 Fo > 4sig(Fo)  and  0.0443 for all    3624 data
REM    224 parameters refined using      4 restraints

END

WGHT      0.0413      1.6266

REM Highest difference peak  0.651,  deepest hole -0.683,  1-sigma level  0.084
Q1    1   0.2186  0.6061  0.0944  11.00000  0.05    0.65
Q2    1   0.6416  1.3298  1.1356  11.00000  0.05    0.50
Q3    1   0.2125  0.4993  0.1154  11.00000  0.05    0.49
Q4    1   0.3325  0.6619  0.2191  11.00000  0.05    0.42
Q5    1   0.4425  1.0620  0.9462  11.00000  0.05    0.42
Q6    1   0.1733  0.5230  0.5396  11.00000  0.05    0.42
Q7    1   0.3226  0.5553  0.2437  11.00000  0.05    0.40
Q8    1   0.5391  1.0258  1.0331  11.00000  0.05    0.37
Q9    1   0.8258  0.9795  0.4620  11.00000  0.05    0.36
Q10   1   0.5463  1.1110  1.0696  11.00000  0.05    0.36
Q11   1   0.6568  0.8214  0.6113  11.00000  0.05    0.35
Q12   1   0.6384  1.2190  1.1577  11.00000  0.05    0.35
Q13   1   0.8346  0.7974  0.8221  11.00000  0.05    0.35
Q14   1   1.0000  1.0000  1.0000  10.50000  0.05    0.35
Q15   1   0.6047  1.0385  1.1111  11.00000  0.05    0.35
Q16   1   0.3080  0.5319  0.1042  11.00000  0.05    0.34
Q17   1   0.8777  1.0043  0.8994  11.00000  0.05    0.34
Q18   1   0.5023  1.3147  1.0461  11.00000  0.05    0.32
Q19   1   1.0000  1.0000  0.5000  10.50000  0.05    0.32
Q20   1  -0.0006  0.5017  0.5214  11.00000  0.05    0.32
;
_shelx_res_checksum              97256
_shelx_hkl_file                  
;
   0   0   4 4647.80  117.99
   0   0  -6  330.72    9.19
   0   0   6  316.91    8.92
   0   0  -7  484.82   13.05
   0   0   7  466.67   12.74
   0   0  -8  172.18    5.60
   0   0   8  182.81    6.13
   0   0  -9  379.69   10.63
   0   0   9  380.07   10.74
   0   0 -10  234.05    7.19
   0   0  10  225.89    6.88
   0   0 -11  745.39   19.63
   0   0  11  766.56   20.23
   0   0 -12  416.37   11.42
   0   0  12  442.09   12.25
   0   0 -13   58.24    3.63
   0   0  13   72.61    4.01
   0  -1  14   22.88    3.74
   0   1 -14   29.20    3.74
   0  -1  13   14.30    3.25
   0   1 -13    5.60    3.44
   0  -1  12   13.61    3.21
   0   1 -12   22.96    3.37
   0  -1  11   12.59    3.21
   0   1 -11   12.82    2.87
   0  -1  10   77.38    3.93
   0   1 -10   77.64    3.93
   0  -1   9   77.11    4.01
   0   1  -9   75.22    3.55
   0  -1   8   27.61    3.03
   0   1  -8   31.09    2.69
   0  -1   7   -0.49    2.27
   0   1  -7    3.59    2.04
   0  -1   6   29.99    2.57
   0   1  -6   24.39    2.34
   0  -1   5   29.42    2.31
   0   1  -5   29.16    2.27
   0  -1   4   34.53    2.16
   0   1  -4   30.59    1.97
   0  -1   3   38.54    2.23
   0   1  -3   36.08    2.04
   0  -1   2   82.82    2.69
   0   1  -2   83.27    2.61
   0  -1   1   66.79    2.04
   0  -1   0  124.84    3.37
   0   1   0   86.11    2.42
   0  -1  -1  247.59    6.50
   0   1   1  258.03    6.77
   0  -1  -2  195.71    5.41
   0   1   2  195.90    5.48
   0  -1  -3  152.59    4.50
   0   1   3  160.73    4.80
   0  -1  -4    3.44    1.70
   0   1   4    0.79    1.85
   0  -1  -5  637.98   16.79
   0   1   5  639.12   16.90
   0  -1  -6   73.10    3.14
   0   1   6   65.84    3.10
   0  -1  -7  115.61    4.20
   0   1   7  118.33    4.42
   0  -1  -8  502.22   13.54
   0   1   8  534.36   14.52
   0  -1  -9  100.97    4.12
   0   1   9  109.22    4.39
   0  -1 -10    4.12    2.72
   0   1  10    1.93    2.76
   0  -1 -11   78.36    3.78
   0   1  11   71.82    3.67
   0  -1 -12   26.36    2.95
   0   1  12   31.73    3.14
   0  -1 -13  259.62    7.64
   0   1  13  257.08    7.75
   0  -2  14   13.01    3.40
   0   2 -14   13.31    3.55
   0  -2  13  635.72   16.90
   0   2 -13  637.61   16.90
   0  -2  12 1152.68   29.88
   0   2 -12 1134.91   29.42
   0  -2  11 2126.87   54.46
   0   2 -11 2013.79   51.62
   0  -2  10 3055.29   77.94
   0   2 -10 2957.72   75.41
   0  -2   9 1307.36   33.88
   0   2  -9 1288.07   33.28
   0  -2   8 4787.72  121.74
   0   2  -8 4821.76  122.53
   0  -2   7 4840.67  123.02
   0   2  -7 4749.90  120.68
   0  -2   6 6092.43  154.67
   0   2  -6 5850.40  148.40
   0  -2   5 2577.65   65.73
   0   2  -5 2538.70   64.71
   0  -2   4   30.86    2.31
   0   2  -4   27.12    1.93
   0  -2   3  147.26    4.46
   0   2  -3  145.75    4.39
   0  -2   2  471.96   12.40
   0  -2   0  367.85    9.68
   0  -2   0  375.45    9.79
   0   2   0  372.92    9.79
   0   2   1  164.20    4.69
   0  -2  -2  241.58    6.66
   0   2   2  259.28    7.15
   0  -2  -3 1883.70   48.07
   0   2   3 1818.28   46.48
   0  -2  -4 5249.10  133.19
   0   2   4 4904.96  124.53
   0  -2  -5 1306.22   33.62
   0   2   5 1334.59   34.41
   0  -2  -6 1419.30   36.53
   0   2   6 1348.58   34.83
   0  -2  -7  224.11    6.66
   0   2   7  223.69    6.85
   0  -2  -8  639.12   16.94
   0   2   8  623.61   16.64
   0  -2  -9  649.33   17.24
   0   2   9  664.84   17.66
   0  -2 -10  679.21   17.93
   0   2  10  728.75   19.25
   0  -2 -11  603.57   16.07
   0   2  11  613.02   16.41
   0  -2 -12  142.91    4.99
   0   2  12  148.62    5.22
   0  -2 -13  488.60   13.16
   0   2  13  484.07   13.16
   0  -3  14   36.68    3.82
   0   3 -14   41.18    3.52
   0  -3  13   39.37    3.71
   0   3 -13   40.43    3.78
   0  -3  12   78.51    4.08
   0   3 -12   69.47    3.78
   0  -3  11   33.20    3.40
   0   3 -11   32.98    3.14
   0  -3  10    2.69    2.95
   0   3 -10    2.31    2.69
   0  -3   9  873.59   23.07
   0   3  -9  899.68   23.48
   0  -3   8   36.00    3.29
   0   3  -8   41.41    2.95
   0  -3   7   -0.45    2.50
   0   3  -7   -0.38    1.97
   0  -3   6  305.45    8.70
   0   3  -6  283.78    7.94
   0  -3   5   -1.51    1.93
   0   3  -5   -0.26    1.74
   0  -3   4 1599.31   40.96
   0   3  -4 1598.93   40.92
   0  -3   3  468.94   12.44
   0  -3   2 2660.85   67.69
   0   3  -2 2509.58   63.87
   0   3  -1 3071.93   78.09
   0  -3   0  335.22    8.96
   0  -3   0  341.08    9.23
   0   3   0  338.13    9.15
   0  -3  -1  977.59   25.22
   0  -3  -1  920.86   23.75
   0   3   1 1012.76   26.13
   0  -3  -2  205.16    5.86
   0  -3  -2  198.69    5.79
   0   3   2  215.49    6.20
   0  -3  -3   72.00    2.91
   0   3   3   72.57    3.06
   0  -3  -4  233.34    6.69
   0   3   4  251.03    7.30
   0  -3  -5   -1.59    2.12
   0   3   5   -0.76    2.19
   0  -3  -6   33.96    2.61
   0   3   6   31.20    2.76
   0  -3  -7    6.39    2.38
   0   3   7    8.40    2.69
   0  -3  -8   20.72    2.80
   0   3   8   15.43    2.72
   0  -3  -9   25.45    2.91
   0   3   9   29.50    2.91
   0  -3 -10   -3.10    2.91
   0   3  10    0.68    2.95
   0  -3 -11   -1.29    2.95
   0   3  11    3.97    3.06
   0  -3 -12   19.85    3.21
   0   3  12   22.58    3.44
   0  -4  14  556.30   15.05
   0   4 -14  547.60   14.67
   0  -4  13  499.57   13.61
   0   4 -13  509.03   13.77
   0  -4  12  939.39   24.58
   0   4 -12  916.32   23.94
   0  -4  11  991.20   25.87
   0   4 -11  998.01   25.98
   0  -4  10   16.19    2.95
   0   4 -10   10.48    3.21
   0  -4   9 2984.57   76.20
   0   4  -9 2810.61   71.70
   0  -4   8 3125.63   79.80
   0   4  -8 2991.76   76.28
   0  -4   7 6281.52  159.52
   0   4  -7 6115.12  155.20
   0  -4   6 4647.80  118.18
   0   4  -6 4583.51  116.40
   0  -4   5 2462.31   62.89
   0   4  -5 2282.68   58.28
   0  -4   4 6062.18  153.73
   0  -4   3 4708.30  119.58
   0   4  -3 4243.15  107.67
   0  -4   1 1198.44   30.82
   0   4  -1 1100.12   28.29
   0  -4   0  576.72   15.20
   0  -4   0  574.07   15.05
   0   4   0  546.84   14.41
   0  -4  -1  245.89    7.03
   0  -4  -1  236.78    6.69
   0   4   1  227.47    6.47
   0  -4  -2  433.77   11.72
   0  -4  -2  464.40   12.40
   0   4   2  489.74   13.12
   0  -4  -3 1450.69   37.33
   0  -4  -3 1401.15   36.00
   0   4   3 1466.19   37.78
   0  -4  -4 1640.91   42.09
   0  -4  -4 1545.23   39.75
   0   4   4 1659.44   42.70
   0  -4  -5 2427.90   61.98
   0   4   5 2478.95   63.42
   0  -4  -6    6.58    2.50
   0   4   6    8.58    2.76
   0  -4  -7 1979.76   50.68
   0   4   7 2011.90   51.58
   0  -4  -8 2036.86   52.11
   0   4   8 2062.58   52.83
   0  -4  -9  885.69   23.14
   0   4   9  881.91   23.07
   0  -4 -10  653.49   17.24
   0   4  10  657.65   17.47
   0  -4 -11    9.23    3.14
   0   4  11    6.85    3.21
   0  -5  14   86.60    4.39
   0   5 -14   78.06    4.05
   0  -5  13   91.03    4.58
   0   5 -13   85.01    4.08
   0  -5  12   -2.12    3.06
   0   5 -12   -5.60    2.99
   0  -5  11    4.69    2.99
   0   5 -11    3.18    2.91
   0  -5  10  334.72    9.61
   0   5 -10  322.85    9.19
   0  -5   9    3.21    3.06
   0   5  -9    0.79    2.57
   0  -5   8    6.96    2.84
   0   5  -8    7.60    2.87
   0  -5   7   67.73    3.63
   0   5  -7   67.39    3.59
   0  -5   6    6.88    2.57
   0   5  -6    8.89    2.38
   0  -5   5  970.02   25.26
   0   5  -5  919.73   23.90
   0  -5   4    9.57    2.38
   0   5  -4    9.23    1.97
   0  -5   3  976.45   25.34
   0   5  -3  912.54   23.67
   0  -5   2 2397.26   61.23
   0   5  -2 2360.96   60.21
   0  -5   1   76.24    3.14
   0   5  -1   68.11    2.95
   0  -5   0  567.64   15.01
   0  -5   0  579.37   15.43
   0   5   0  537.77   14.22
   0  -5  -1   69.47    3.03
   0  -5  -1   71.51    3.03
   0   5   1   64.44    2.84
   0  -5  -2    5.79    1.85
   0  -5  -2    8.21    1.97
   0   5   2    3.59    1.85
   0  -5  -3   60.51    2.95
   0  -5  -3   70.00    3.18
   0   5   3   60.89    3.10
   0  -5  -4   25.79    2.53
   0  -5  -4   24.28    2.31
   0   5   4   30.41    2.87
   0  -5  -5  379.69   10.44
   0  -5  -5  379.69   10.51
   0   5   5  400.49   11.16
   0  -5  -6    4.80    2.38
   0  -5  -6    8.85    2.50
   0   5   6    3.86    2.84
   0  -5  -7   23.94    2.80
   0  -5  -7   25.56    2.76
   0   5   7   23.11    2.84
   0  -5  -8  151.61    5.37
   0  -5  -8  134.06    4.84
   0   5   8  139.02    4.95
   0  -5  -9   86.34    4.05
   0   5   9   76.09    4.05
   0  -5 -10   70.23    3.59
   0   5  10   77.22    4.05
   0  -5 -11   25.98    3.18
   0   5  11   30.48    3.59
   0  -6  14 1025.24   26.66
   0   6 -14  908.38   23.64
   0  -6  13  765.05   20.23
   0   6 -13  724.97   19.06
   0  -6  12  876.99   22.99
   0   6 -12  882.29   23.07
   0  -6  11  139.81    5.18
   0   6 -11  137.32    5.03
   0  -6  10  594.87   16.00
   0   6 -10  574.07   15.43
   0  -6   9  191.28    6.20
   0   6  -9  191.81    6.16
   0  -6   8  880.77   23.18
   0   6  -8  836.91   22.01
   0  -6   7    7.64    2.76
   0   6  -7    8.17    2.61
   0  -6   6   22.16    2.91
   0   6  -6   24.35    2.76
   0  -6   5   63.31    3.10
   0   6  -5   57.22    3.10
   0  -6   4  259.39    7.56
   0   6  -4  247.21    7.19
   0  -6   3 4367.94  111.03
   0   6  -3 4141.04  105.21
   0  -6   2 1136.42   29.42
   0   6  -2  972.67   25.26
   0  -6   1 1416.65   36.49
   0  -6   1 1436.32   36.91
   0   6  -1 1306.98   33.70
   0  -6   0  773.75   20.23
   0  -6   0  746.52   19.63
   0   6   0  749.92   19.67
   0  -6  -1 1923.41   49.31
   0  -6  -1 1890.89   48.44
   0   6   1 1635.24   42.13
   0  -6  -2 3026.17   77.11
   0  -6  -2 3060.59   77.98
   0  -6  -3 1912.44   49.05
   0  -6  -3 2002.45   51.28
   0   6   3 2245.24   57.56
   0  -6  -4 1645.45   42.28
   0  -6  -4 1688.18   43.34
   0   6   4 1782.73   45.87
   0  -6  -5   40.96    2.87
   0  -6  -5   41.83    2.95
   0   6   5   35.93    3.21
   0  -6  -6 1739.24   44.66
   0  -6  -6 1816.01   46.52
   0   6   6 1886.35   48.33
   0   6   7 2321.25   59.34
   0  -6  -8 1673.81   42.92
   0  -6  -8 1647.72   42.28
   0   6   8 1649.61   42.36
   0  -6  -9 1336.10   34.41
   0  -6  -9 1370.89   35.25
   0   6   9 1386.02   35.70
   0  -6 -10  536.63   14.37
   0  -6 -10  540.41   14.37
   0   6  10  544.20   14.64
   0  -7  13   39.67    3.93
   0   7 -13   47.73    3.63
   0  -7  12  165.38    5.86
   0   7 -12  161.94    5.82
   0  -7  11    2.53    3.14
   0   7 -11   -1.06    3.52
   0  -7  10    6.88    2.95
   0   7 -10   11.65    2.99
   0  -7   9   61.08    3.52
   0   7  -9   65.76    3.59
   0   7  -8    1.06    2.84
   0  -7   7   80.36    3.78
   0   7  -7   75.03    3.71
   0  -7   6    2.46    2.50
   0   7  -6    1.02    2.57
   0  -7   5    0.34    2.42
   0   7  -5    3.67    2.42
   0  -7   4   11.95    2.80
   0   7  -4   11.84    2.46
   0  -7   3   19.40    2.76
   0   7  -3   21.14    2.50
   0  -7   2   58.28    3.33
   0   7  -2   57.41    3.06
   0  -7   1   15.58    2.69
   0  -7   1   17.02    2.27
   0   7  -1   16.83    2.46
   0  -7   0   29.65    2.57
   0  -7   0   34.00    2.72
   0   7   0   33.01    2.72
   0  -7  -1   59.34    3.06
   0  -7  -1   58.39    3.03
   0  -7  -2   11.27    2.42
   0  -7  -2    6.96    2.19
   0  -7  -3   14.82    2.65
   0  -7  -3   14.07    2.42
   0  -7  -4    6.69    2.53
   0  -7  -4    6.39    2.61
   0  -7  -5   17.43    2.91
   0  -7  -5   16.79    2.76
   0   7   5   24.47    2.84
   0  -7  -6   -1.25    2.99
   0  -7  -6    1.36    2.80
   0   7   6   -1.59    2.80
   0  -7  -7   25.56    3.03
   0  -7  -7   29.16    2.95
   0   7   7   23.18    3.06
   0  -7  -8    5.14    3.25
   0  -7  -8    0.79    2.87
   0   7   8    4.35    3.06
   0  -7  -9    1.55    2.95
   0  -7  -9    1.85    2.99
   0   7   9   -3.82    3.14
   0  -8  13  270.66    8.24
   0   8 -13  270.59    7.98
   0  -8  12  194.35    6.35
   0   8 -12  203.08    6.50
   0  -8  11  210.57    6.85
   0   8 -11  202.02    6.47
   0  -8  10  448.14   12.29
   0   8 -10  467.80   12.78
   0   8  -9 1395.85   36.08
   0  -8   8  563.11   15.24
   0   8  -8  550.63   14.98
   0  -8   7  486.34   13.31
   0   8  -7  441.71   12.33
   0  -8   6  174.94    5.75
   0   8  -6  167.87    5.71
   0  -8   5  543.06   14.64
   0   8  -5  513.94   13.95
   0  -8   4 5146.99  130.77
   0   8  -4 4712.09  119.84
   0  -8   3  652.36   17.36
   0   8  -3  609.62   16.22
   0  -8   2  977.97   25.49
   0  -8   2  915.57   23.90
   0   8  -2  901.57   23.60
   0  -8   1 2266.79   57.97
   0  -8   1 2245.61   57.45
   0   8  -1 2084.89   53.44
   0  -8   0 2826.49   72.08
   0  -8   0 2810.99   71.74
   0   8   0 2674.47   68.26
   0  -8  -1 5082.70  129.15
   0  -8  -1 5279.35  134.10
   0  -8  -2 2366.25   60.47
   0  -8  -2 2359.82   60.28
   0  -8  -3 1927.19   49.35
   0  -8  -3 1960.47   50.26
   0  -8  -4  945.82   24.69
   0  -8  -4  929.56   24.24
   0  -8  -5  869.05   22.69
   0  -8  -5  873.21   22.77
   0  -8  -6  295.09    8.51
   0  -8  -6  298.87    8.51
   0  -8  -7  340.66    9.49
   0  -8  -7  339.07    9.68
   0   8   7  347.96    9.83
   0  -8  -8   21.90    3.33
   0  -8  -8   20.57    3.25
   0   8   8   14.98    3.44
   0  -9  12   22.05    3.44
   0   9 -12   20.19    3.29
   0  -9  11   56.84    4.01
   0   9 -11   53.51    3.52
   0   9 -10  186.86    6.77
   0  -9   9  101.39    4.35
   0   9  -9   97.15    4.61
   0  -9   8  102.26    4.39
   0   9  -8   97.08    4.54
   0  -9   7   17.13    2.99
   0   9  -7   13.50    3.59
   0  -9   6  155.73    5.37
   0   9  -6  139.59    5.29
   0  -9   5  100.86    4.24
   0   9  -5   87.06    4.35
   0  -9   4   14.90    2.72
   0   9  -4   12.18    3.18
   0  -9   3    2.69    2.72
   0   9  -3    3.90    2.72
   0  -9   2   93.41    3.82
   0  -9   2   90.72    3.93
   0   9  -2   80.17    3.82
   0  -9   1    1.59    2.72
   0  -9   1   -1.10    2.50
   0   9  -1    4.27    3.18
   0  -9   0   -1.17    2.61
   0  -9   0    5.79    2.65
   0   9   0   -2.38    3.14
   0  -9  -1   15.09    2.53
   0  -9  -1   17.43    2.99
   0  -9  -2   12.74    2.99
   0  -9  -2    9.53    2.50
   0  -9  -3  118.41    4.46
   0  -9  -3  112.70    4.20
   0  -9  -4  209.32    6.58
   0  -9  -4  210.87    6.39
   0  -9  -5   27.99    3.03
   0  -9  -5   18.27    2.99
   0  -9  -6   84.60    3.93
   0  -9  -6   81.84    3.93
   0 -10  10 1310.01   33.73
   0  10 -10 1325.51   34.38
   0 -10   9 1271.81   32.79
   0  10  -9 1218.86   31.69
   0 -10   8 1265.76   32.79
   0  10  -8 1166.68   30.37
   0 -10   7 1704.44   43.79
   0  10  -7 1577.75   40.69
   0 -10   6 2189.64   56.01
   0  10  -6 2049.34   52.60
   0 -10   5 4553.25  115.76
   0  10  -5 4258.27  108.42
   0 -10   4 1225.29   31.73
   0  10  -4 1192.39   31.01
   0 -10   3  652.36   17.24
   0 -10   3  642.90   17.13
   0  10  -3  629.66   17.02
   0 -10   2  536.63   14.37
   0 -10   2  555.92   14.94
   0  10  -2  531.72   14.48
   0 -10   1  673.53   17.93
   0 -10   1  671.26   17.77
   0  10  -1  642.52   17.32
   0 -10   0  985.53   25.72
   0 -10   0  936.74   24.32
   0 -10  -1  236.02    7.22
   0 -10  -1  222.71    6.69
   0 -10  -2  290.63    8.40
   0 -10  -2  308.14    8.74
   0 -10  -3  247.97    7.34
   0 -10  -3  231.10    6.96
   0 -10  -4  678.45   17.85
   0 -10  -4  731.77   19.29
   0 -10  -5  397.09   11.04
   0 -10  -5  422.05   11.42
   0 -11  10    3.25    3.21
   0  11 -10    8.81    4.20
   0 -11   9   -3.78    3.03
   0  11  -9    0.38    3.48
   0 -11   8   49.16    3.74
   0  11  -8   55.10    3.82
   0 -11   7    8.85    3.03
   0  11  -7   12.74    3.29
   0 -11   6    5.60    2.99
   0  11  -6   12.86    3.63
   0 -11   5   44.89    3.37
   0  11  -5   47.35    3.74
   0 -11   4   43.94    3.06
   0 -11   4   54.08    3.48
   0  11  -4   49.20    4.05
   0 -11   3    6.58    2.61
   0 -11   3    1.59    2.84
   0  11  -3    3.52    3.18
   0 -11   2   24.62    2.84
   0 -11   2   23.79    2.99
   0  11  -2   24.32    3.21
   0 -11   1    9.15    2.91
   0 -11   1    6.50    2.84
   0  11  -1    9.42    3.59
   0 -11   0    1.29    2.87
   0 -11   0   -0.61    2.95
   0 -11  -1   41.18    2.95
   0 -11  -1   40.39    3.48
   0 -11  -2    1.51    3.18
   0 -11  -2    1.25    2.91
   0 -11  -3   -0.08    3.03
   0 -11  -3    0.34    2.99
   0 -12   8  195.82    6.28
   0  12  -8  195.90    6.54
   0 -12   7  248.16    7.41
   0  12  -7  230.69    7.53
   0 -12   6  337.45    9.68
   0  12  -6  333.29    9.72
   0 -12   5  439.06   11.91
   0 -12   5  454.19   12.40
   0  12  -5  420.53   11.80
   0 -12   4  554.03   14.75
   0 -12   4  548.73   14.71
   0  12  -4  527.56   14.52
   0 -12   3  139.62    5.07
   0 -12   3  147.15    5.03
   0  12  -3  124.61    5.14
   0 -12   2  676.56   17.96
   0 -12   2  672.02   17.70
   0  12  -2  633.07   17.06
   0 -12   1  571.80   15.24
   0 -12   1  583.15   15.54
   0 -12   0  392.55   11.00
   0 -12   0  358.59    9.95
   1 -12  -1  431.12   11.80
   1 -12  -1  435.28   11.80
   1 -12   0  682.99   17.93
   1 -12   0  720.81   19.06
   1 -12   1  654.25   17.32
   1 -12   1  618.70   16.38
  -1  12  -2  288.25    8.70
   1 -12   2  302.84    8.55
   1 -12   2  308.44    8.96
  -1  12  -3  984.77   25.72
   1 -12   3 1044.52   27.00
   1 -12   3 1044.52   27.04
  -1  12  -4 1057.76   27.57
   1 -12   4 1067.22   27.57
   1 -12   4 1120.92   28.97
  -1  12  -5  771.86   20.42
   1 -12   5  825.56   21.48
   1 -12   5  834.64   21.82
  -1  12  -6  579.75   15.66
   1 -12   6  645.93   17.06
  -1  12  -7  700.01   18.68
   1 -12   7  714.75   18.83
   1 -11  -3    1.97    3.14
   1 -11  -3    1.02    3.29
   1 -11  -2   21.86    3.18
   1 -11  -2   15.13    2.99
   1 -11  -1    1.13    2.91
   1 -11  -1   -1.40    3.10
   1 -11   0   -2.76    2.91
   1 -11   0    7.34    2.80
  -1  11  -1    6.05    3.74
   1 -11   1   12.44    3.29
   1 -11   1    8.89    2.91
  -1  11  -2    8.40    3.55
   1 -11   2    5.26    2.99
   1 -11   2    9.38    2.80
  -1  11  -3   30.52    3.44
   1 -11   3   28.85    3.10
   1 -11   3   25.15    2.80
  -1  11  -4   47.39    3.63
   1 -11   4   59.64    3.29
   1 -11   4   50.83    3.67
  -1  11  -5    7.79    3.29
   1 -11   5    7.94    2.95
  -1  11  -6   87.36    4.39
   1 -11   6   86.22    4.27
  -1  11  -7  141.44    5.71
   1 -11   7  153.65    5.33
  -1  11  -8   41.98    3.55
  -1  11  -9   58.35    3.82
   1 -11   9   64.29    4.24
   1 -10  -5  567.64   15.09
   1 -10  -5  553.65   14.79
   1 -10  -4  283.33    8.24
   1 -10  -4  279.40    8.13
   1 -10  -3  313.70    8.89
   1 -10  -3  321.26    9.11
   1 -10  -2  212.31    6.47
   1 -10  -2  202.36    6.35
   1 -10  -1  395.95   10.97
   1 -10  -1  391.04   10.97
  -1  10   0   75.60    3.90
   1 -10   0   81.76    3.63
   1 -10   0   77.98    3.78
  -1  10  -1   35.13    3.74
   1 -10   1   32.83    3.10
   1 -10   1   35.59    3.40
  -1  10  -2    8.36    3.03
   1 -10   2    9.57    2.91
   1 -10   2    6.62    2.53
  -1  10  -3   46.63    3.55
   1 -10   3   52.64    3.14
   1 -10   3   49.31    3.40
  -1  10  -4 1248.74   32.45
   1 -10   4 1320.97   34.15
  -1  10  -5  275.39    8.28
   1 -10   5  320.88    9.23
  -1  10  -6  599.03   16.19
   1 -10   6  684.50   18.15
  -1  10  -7  630.04   16.79
  -1  10  -8  991.58   25.79
   1 -10   8 1105.03   28.67
  -1  10  -9 1671.92   42.89
   1 -10   9 1795.21   46.02
  -1  10 -10  752.95   19.74
   1 -10  10  807.79   21.29
  -1  10 -11  844.47   22.01
   1 -10  11  898.55   23.45
   1  -9  -6   28.48    3.06
   1  -9  -6   26.81    3.37
   1  -9  -5   95.15    3.97
   1  -9  -5   99.27    4.31
   1  -9  -4  197.94    6.32
   1  -9  -4  190.60    6.09
   1  -9  -3   46.06    3.10
   1  -9  -3   46.52    3.25
   1  -9  -2   66.52    3.63
   1  -9  -2   54.19    3.59
   1  -9  -1   51.77    3.33
   1  -9  -1   46.18    3.48
  -1   9   0   -2.76    3.18
   1  -9   0   -2.61    2.65
   1  -9   0    0.98    2.65
  -1   9  -1  147.68    5.52
   1  -9   1  145.22    5.07
   1  -9   1  150.29    5.14
  -1   9  -2   32.45    3.18
   1  -9   2   36.95    3.10
   1  -9   2   32.03    2.76
  -1   9  -3  275.24    8.21
   1  -9   3  320.58    9.27
  -1   9  -4  209.40    6.73
   1  -9   4  230.20    7.11
  -1   9  -5   18.80    2.99
   1  -9   5   24.09    3.03
  -1   9  -6    7.11    2.87
   1  -9   6    3.40    2.95
  -1   9  -7   10.59    2.95
   1  -9   7    6.92    2.91
  -1   9  -8   -2.72    3.25
   1  -9   8    6.92    2.91
  -1   9  -9   73.37    3.86
   1  -9   9   74.20    3.90
  -1   9 -10   16.34    3.03
   1  -9  10   18.68    3.14
  -1   9 -11    0.83    2.95
   1  -9  11    3.25    3.52
  -1   9 -12   44.74    3.52
   1  -9  12   37.52    3.71
  -1   8   8  259.13    7.79
   1  -8  -8  263.97    7.75
   1  -8  -8  247.40    7.41
  -1   8   7   42.85    3.52
   1  -8  -7   41.64    3.25
   1  -8  -7   42.77    3.37
  -1   8   6  216.09    6.66
   1  -8  -6  204.56    6.39
   1  -8  -6  183.53    5.86
   1  -8  -5   64.74    3.55
   1  -8  -5   59.90    3.48
   1  -8  -4  509.03   13.77
   1  -8  -4  501.46   13.54
   1  -8  -3 1144.36   29.69
   1  -8  -3 1162.89   30.14
   1  -8  -2 2500.51   63.80
   1  -8  -2 2529.63   64.63
   1  -8  -1 2148.42   54.95
   1  -8  -1 2177.54   55.78
  -1   8   0 1668.90   42.92
   1  -8   0 1806.17   46.33
   1  -8   0 1843.99   47.31
  -1   8  -1 1509.30   38.91
   1  -8   1 1568.30   40.31
   1  -8   1 1579.65   40.62
  -1   8  -2 1584.56   40.77
   1  -8   2 1808.44   46.40
   1  -8   2 1786.51   45.80
  -1   8  -3 6088.65  154.60
   1  -8   3 6270.17  159.10
  -1   8  -4  850.14   22.35
   1  -8   4  874.72   22.92
  -1   8  -5  900.06   23.56
   1  -8   5  985.53   25.83
  -1   8  -6 1093.31   28.40
   1  -8   6 1155.33   29.99
  -1   8  -7 1092.93   28.40
   1  -8   7 1169.70   30.29
  -1   8  -8 2525.09   64.48
   1  -8   8 2717.58   69.32
  -1   8  -9  648.57   17.32
   1  -8   9  672.02   17.93
  -1   8 -10  625.50   16.64
   1  -8  10  647.06   17.28
  -1   8 -11  769.97   20.23
   1  -8  11  812.32   21.40
  -1   8 -12  388.77   10.82
   1  -8  12  395.19   11.04
  -1   8 -13   39.60    3.67
   1  -8  13   38.99    4.08
  -1   7   9   23.98    3.37
   1  -7  -9   20.46    3.55
   1  -7  -9   20.57    3.29
  -1   7   8    1.85    3.40
   1  -7  -8    6.16    2.87
   1  -7  -8    8.02    3.33
  -1   7   7   45.23    3.44
   1  -7  -7   43.87    3.21
   1  -7  -7   44.02    3.37
  -1   7   6   78.74    3.86
   1  -7  -6   75.30    3.78
   1  -7  -6   78.70    4.08
  -1   7   5   50.94    3.33
   1  -7  -5   49.62    3.21
   1  -7  -5   50.26    3.48
  -1   7   4   17.02    2.84
   1  -7  -4   11.35    2.50
   1  -7  -4   11.99    2.65
   1  -7  -3    6.77    2.38
   1  -7  -3    6.54    2.46
   1  -7  -2   37.67    2.84
   1  -7  -2   31.39    2.61
  -1   7   1    4.80    2.23
   1  -7  -1    3.40    2.31
   1  -7  -1    4.84    2.23
  -1   7   0   22.39    2.57
   1  -7   0   28.06    2.57
   1  -7   0   22.92    2.38
  -1   7  -1   24.96    2.84
   1  -7   1   27.42    2.76
   1  -7   1   31.62    2.69
  -1   7  -2    7.60    2.31
   1  -7   2    6.39    2.61
  -1   7  -3   42.47    3.06
   1  -7   3   43.23    3.21
  -1   7  -4   76.35    3.40
   1  -7   4   78.74    3.90
  -1   7  -5   18.53    2.57
   1  -7   5   21.56    3.14
  -1   7  -6   24.20    2.80
   1  -7   6   20.99    2.95
  -1   7  -7   72.19    3.55
   1  -7   7   79.00    4.16
  -1   7  -8   30.33    3.37
   1  -7   8   26.81    2.95
  -1   7  -9   74.35    3.86
   1  -7   9   71.51    3.67
  -1   7 -10   33.20    3.29
   1  -7  10   32.64    3.29
  -1   7 -11  170.60    5.79
   1  -7  11  191.47    6.35
  -1   7 -12   68.00    3.86
   1  -7  12   66.03    4.16
  -1   7 -13   18.68    3.82
   1  -7  13   24.62    3.63
  -1   6  10  506.00   13.73
   1  -6 -10  505.24   13.65
   1  -6 -10  497.68   13.46
  -1   6   9  785.85   20.72
   1  -6  -9  768.46   20.19
   1  -6  -9  755.22   19.85
  -1   6   8 1828.11   46.89
   1  -6  -8 1648.85   42.32
   1  -6  -8 1705.96   43.79
  -1   6   7 1251.01   32.37
   1  -6  -7 1190.12   30.75
   1  -6  -7 1209.03   31.39
  -1   6   6   11.50    2.76
   1  -6  -6   10.63    2.69
   1  -6  -6   11.46    2.76
  -1   6   5 2399.16   61.42
   1  -6  -5 2219.14   56.80
   1  -6  -5 2295.53   58.66
  -1   6   4 2497.48   63.91
   1  -6  -4 2430.92   62.17
   1  -6  -4 2308.01   58.96
  -1   6   3 3772.32   96.09
   1  -6  -3 3357.08   85.51
   1  -6  -3 3371.07   85.85
   1  -6  -2 2919.15   74.39
   1  -6  -2 2838.22   72.42
  -1   6   1 1746.42   44.78
   1  -6  -1 1814.49   46.48
   1  -6  -1 1878.03   48.14
  -1   6   0 5476.00  138.98
   1  -6   0 5729.38  145.37
   1  -6   0 5801.24  147.34
  -1   6  -1 5661.31  143.67
   1  -6   1 6224.79  158.08
  -1   6  -3 3883.88   98.78
   1  -6   3 3796.90   96.59
  -1   6  -4 2841.62   72.46
   1  -6   4 2940.70   75.11
  -1   6  -5  875.48   22.88
   1  -6   5  915.19   24.05
  -1   6  -6 1057.00   27.46
   1  -6   6 1105.41   28.78
  -1   6  -7 1070.62   27.87
   1  -6   7 1102.76   28.82
  -1   6  -8  358.63   10.06
   1  -6   8  379.69   10.74
  -1   6  -9  120.03    4.61
   1  -6   9  112.89    4.46
  -1   6 -10  114.32    4.61
   1  -6  10  116.10    4.84
  -1   6 -11  412.59   11.42
   1  -6  11  415.24   11.61
  -1   6 -12  238.74    7.30
   1  -6  12  234.02    7.37
  -1   6 -13  951.12   24.77
   1  -6  13 1007.46   26.25
  -1   5  11    0.79    3.67
   1  -5 -11    2.34    3.40
  -1   5  10   -0.42    3.06
   1  -5 -10    0.15    2.99
  -1   5   9    4.80    3.44
   1  -5  -9    5.82    3.06
  -1   5   8    5.11    2.87
   1  -5  -8    3.03    3.10
  -1   5   7   -1.44    3.06
   1  -5  -7    0.15    2.84
   1  -5  -7    1.59    2.31
  -1   5   6   33.88    3.18
   1  -5  -6   29.91    2.87
   1  -5  -6   33.62    2.91
  -1   5   5   -0.04    2.87
   1  -5  -5    2.31    2.72
   1  -5  -5    1.93    2.31
  -1   5   4   -3.82    2.42
   1  -5  -4    1.44    2.34
   1  -5  -4    0.34    2.31
  -1   5   3   19.74    2.31
   1  -5  -3   19.70    2.57
   1  -5  -3   24.05    2.27
  -1   5   2   -0.79    1.97
   1  -5  -2   -1.85    1.78
   1  -5  -2    2.31    2.23
  -1   5   1  164.20    4.99
   1  -5  -1  169.80    5.11
   1  -5  -1  178.88    5.60
  -1   5   0  159.29    4.88
   1  -5   0  179.94    5.33
   1  -5   0  177.89    5.41
   1  -5   1  178.16    5.45
  -1   5  -2  194.57    5.75
   1  -5   2  213.03    6.35
  -1   5  -3    3.03    1.78
   1  -5   3   -0.42    2.12
  -1   5  -4  608.49   16.07
   1  -5   4  656.14   17.40
  -1   5  -5   32.26    2.65
   1  -5   5   31.46    2.61
  -1   5  -6   44.74    2.95
   1  -5   6   50.64    3.21
  -1   5  -7   67.58    3.59
   1  -5   7   74.12    3.82
  -1   5  -8   48.52    3.52
   1  -5   8   45.00    3.55
  -1   5  -9  362.60   10.32
   1  -5   9  385.36   10.89
  -1   5 -10   49.28    3.48
   1  -5  10   59.94    3.78
  -1   5 -11   14.30    2.99
   1  -5  11   18.98    3.14
  -1   5 -12   83.80    4.08
   1  -5  12   86.19    4.35
  -1   5 -13   51.89    3.59
   1  -5  13   63.69    4.12
  -1   5 -14   67.47    3.97
   1  -5  14   64.48    4.35
  -1   4  12   71.70    4.05
   1  -4 -12   79.64    4.31
  -1   4  11  605.84   16.26
   1  -4 -11  608.49   16.22
  -1   4  10  874.35   22.92
   1  -4 -10  909.89   23.75
  -1   4   9 2662.37   67.96
   1  -4  -9 2636.65   67.28
  -1   4   8 2030.43   52.00
   1  -4  -8 2006.23   51.39
  -1   4   7   41.64    3.55
   1  -4  -7   40.43    3.25
  -1   4   6 5090.26  129.41
   1  -4  -6 4852.01  123.25
  -1   4   5 4167.51  106.08
   1  -4  -5 3940.60  100.22
  -1   4   4 2959.61   75.52
   1  -4  -4 2799.64   71.36
   1  -4  -4 2791.70   71.25
  -1   4   3  984.77   25.60
   1  -4  -3 1004.06   25.94
   1  -4  -3  966.62   25.11
  -1   4   2  146.24    4.69
   1  -4  -2  141.82    4.46
   1  -4  -2  136.03    4.42
  -1   4   1  640.25   16.75
   1  -4  -1  678.07   17.70
   1  -4  -1  693.20   18.11
   1  -4   0   99.16    3.59
   1  -4   0   94.70    3.29
  -1   4  -1  769.97   20.01
   1  -4   1  887.20   22.99
  -1   4  -2   83.27    3.03
   1  -4   2   91.71    3.44
  -1   4  -3  957.92   24.77
   1  -4   3 1032.05   26.74
  -1   4  -4   91.29    3.55
   1  -4   4  100.33    3.67
  -1   4  -5 1583.81   40.65
   1  -4   5 1592.13   40.96
  -1   4  -6 4193.98  106.68
   1  -4   6 4118.35  104.83
  -1   4  -7 2001.31   51.21
   1  -4   7 2008.88   51.55
  -1   4  -8 1553.55   39.97
   1  -4   8 1590.23   41.03
  -1   4  -9   64.93    3.52
   1  -4   9   70.19    3.90
  -1   4 -10  498.44   13.54
   1  -4  10  508.65   13.80
  -1   4 -11  490.12   13.31
   1  -4  11  481.42   13.24
  -1   4 -12  296.07    8.62
   1  -4  12  302.54    9.00
  -1   4 -13  149.61    5.18
   1  -4  13  161.82    5.90
  -1   4 -14    5.52    2.95
   1  -4  14    1.17    3.55
  -1   3  13  107.40    5.33
   1  -3 -13  119.50    5.11
  -1   3  12   53.25    4.08
   1  -3 -12   53.32    3.74
  -1   3  11   74.43    4.24
   1  -3 -11   89.85    4.24
  -1   3  10   23.22    3.10
   1  -3 -10   24.28    3.10
  -1   3   9  118.97    4.69
   1  -3  -9  114.10    4.65
  -1   3   8  343.38    9.98
   1  -3  -8  319.26    9.19
  -1   3   7    8.70    3.03
   1  -3  -7    4.92    2.50
  -1   3   6   58.43    3.21
   1  -3  -6   63.57    3.03
  -1   3   5  171.05    5.41
   1  -3  -5  165.04    5.14
  -1   3   4    2.84    1.93
   1  -3  -4    0.57    1.97
  -1   3   3   99.27    3.67
   1  -3  -3  106.80    3.59
  -1   3   2   62.70    2.65
   1  -3  -2   62.55    2.50
   1  -3  -2   60.85    2.61
   1  -3  -1   19.48    1.85
   1  -3  -1   20.69    2.00
  -1   3   0 1340.26   34.30
   1  -3   0 1399.63   35.89
   1  -3   0 1373.54   35.13
  -1   3  -1 2137.46   54.46
   1  -3   1 2212.71   56.42
  -1   3  -2    1.89    1.66
   1  -3   2    3.25    1.89
  -1   3  -3  752.95   19.55
   1  -3   3  750.68   19.55
  -1   3  -4    3.33    1.93
   1  -3   4    4.54    1.82
  -1   3  -5  154.86    4.88
   1  -3   5  151.54    4.88
  -1   3  -6  345.65    9.53
   1  -3   6  334.76    9.49
  -1   3  -7  168.63    5.29
   1  -3   7  179.75    5.71
  -1   3  -8  968.89   25.22
   1  -3   8 1018.05   26.62
  -1   3  -9   31.69    2.76
   1  -3   9   36.30    3.25
  -1   3 -10   37.14    2.95
   1  -3  10   36.57    3.29
  -1   3 -11  355.60    9.95
   1  -3  11  353.97   10.14
  -1   3 -12   12.18    3.10
   1  -3  12   15.43    3.37
  -1   3 -13   19.40    3.21
   1  -3  13   11.16    3.55
  -1   3 -14    0.61    3.37
   1  -3  14    6.16    3.44
  -1   2  13  179.97    6.01
   1  -2 -13  192.79    6.24
  -1   2  12  696.22   18.49
   1  -2 -12  689.79   18.19
  -1   2  11 1046.79   27.23
   1  -2 -11 1095.20   28.36
  -1   2  10 1076.67   27.99
   1  -2 -10 1074.78   27.99
  -1   2   9 1258.19   32.64
   1  -2  -9 1210.92   31.35
  -1   2   8  117.92    4.61
   1  -2  -8  125.71    4.58
  -1   2   7 3141.89   80.17
   1  -2  -7 3181.98   81.04
  -1   2   6 3760.21   95.72
   1  -2  -6 3618.02   92.05
  -1   2   5 6841.22  173.55
  -1   2   4 5411.71  137.43
  -1   2   3 3737.15   94.96
   1  -2  -3 3568.10   90.61
  -1   2  -1  372.69    9.83
   1  -2   1  392.17   10.40
  -1   2  -2    8.02    1.63
   1  -2   2    9.23    1.55
  -1   2  -3   14.07    1.63
   1  -2   3   14.98    1.89
  -1   2  -4  126.84    4.01
   1  -2   4  132.59    4.31
  -1   2  -5 3997.33  101.58
   1  -2   5 3944.39  100.33
  -1   2  -6  841.44   21.90
   1  -2   6  880.77   23.03
  -1   2  -7 2086.78   53.36
   1  -2   7 2143.51   54.95
  -1   2  -8 1471.86   37.86
   1  -2   8 1517.62   39.18
  -1   2  -9 2811.75   71.74
   1  -2   9 2774.68   70.91
  -1   2 -10 2455.88   62.70
   1  -2  10 2589.76   66.18
  -1   2 -11 2511.47   64.10
   1  -2  11 2675.22   68.26
  -1   2 -12 1678.35   43.04
   1  -2  12 1722.97   44.21
  -1   2 -13  440.58   11.95
   1  -2  13  463.27   12.59
  -1   1  14   52.91    3.97
   1  -1 -14   67.35    4.01
  -1   1  13    4.88    3.25
   1  -1 -13    6.85    3.29
  -1   1  12    7.94    3.40
   1  -1 -12   10.14    3.21
  -1   1  11  256.52    7.75
   1  -1 -11  240.22    7.26
  -1   1  10  205.12    6.43
   1  -1 -10  195.90    6.24
  -1   1   9  145.71    5.22
   1  -1  -9  145.07    5.03
  -1   1   8  772.62   20.46
   1  -1  -8  758.62   19.93
  -1   1   7   -0.30    2.23
   1  -1  -7    1.02    2.16
  -1   1   6  240.63    7.03
   1  -1  -6  235.83    6.77
  -1   1   5   57.86    2.91
   1  -1  -5   61.61    2.76
  -1   1   4    0.76    1.66
   1  -1  -4    0.23    1.74
  -1   1   3  409.94   10.89
  -1   1   2  405.78   10.66
   1  -1  -2  409.57   10.74
  -1   1   1    9.68    1.17
   1  -1  -1    9.91    1.13
  -1   1   0   97.80    2.80
   1  -1   0   96.89    2.72
   1  -1   0   93.79    2.72
  -1   1  -1   82.18    2.53
   1  -1   1   63.65    2.12
  -1   1  -2  193.21    5.33
   1  -1   2  202.14    5.60
  -1   1  -3    4.16    1.47
   1  -1   3    4.61    1.59
  -1   1  -4  300.12    8.21
   1  -1   4  290.33    8.02
  -1   1  -5   47.20    2.38
   1  -1   5   46.86    2.57
  -1   1  -6   84.11    3.37
   1  -1   6   78.77    3.40
  -1   1  -7  295.62    8.32
   1  -1   7  290.02    8.40
  -1   1  -8   22.01    2.57
   1  -1   8   27.80    3.03
  -1   1  -9   69.02    3.44
   1  -1   9   65.80    3.78
  -1   1 -10  166.44    5.56
   1  -1  10  169.99    5.79
  -1   1 -11  133.99    4.95
   1  -1  11  130.47    4.95
  -1   1 -12   85.39    4.01
   1  -1  12   90.84    4.35
  -1   1 -13  129.87    4.84
   1  -1  13  127.11    4.88
  -1   0  14  272.48    8.28
   1   0 -14  263.55    8.02
  -1   0  13  873.59   22.88
   1   0 -13  912.92   23.79
  -1   0  12 1075.91   27.95
   1   0 -12 1095.96   28.36
  -1   0  11  751.44   19.82
   1   0 -11  763.54   20.16
  -1   0  10  577.48   15.51
   1   0 -10  572.18   15.39
  -1   0   9   35.17    3.14
   1   0  -9   35.59    2.91
  -1   0   8   33.77    3.14
   1   0  -8   31.88    2.84
  -1   0   7   58.35    2.91
   1   0  -7   68.64    3.25
  -1   0   6   16.90    2.23
   1   0  -6   20.69    2.12
  -1   0   5  694.71   18.15
   1   0  -5  715.89   18.68
  -1   0   4 2395.37   61.04
  -1   0   3 3628.23   92.09
  -1   0   2 1098.60   28.06
   1   0  -2 1028.26   26.25
  -1   0  -1  746.14   19.06
   1   0   1  754.84   19.29
  -1   0  -5 3245.52   82.59
   1   0   5 3155.13   80.36
  -1   0  -6 1578.89   40.50
   1   0   6 1540.31   39.63
  -1   0  -7 3195.22   81.35
   1   0   7 3321.15   84.67
  -1   0  -8 1258.19   32.45
   1   0   8 1252.90   32.49
  -1   0  -9  546.84   14.64
   1   0   9  544.20   14.71
  -1   0 -10 1712.39   43.94
   1   0  10 1723.73   44.21
  -1   0 -11  890.99   23.26
   1   0  11  845.98   22.20
  -1   0 -12  293.20    8.43
   1   0  12  276.79    8.17
  -1   0 -13  362.14   10.10
   1   0  13  323.91    9.23
  -1  -1  14   34.53    3.59
   1   1 -14   35.89    3.78
  -1  -1  13   91.07    4.42
   1   1 -13   86.19    4.31
  -1  -1  12    3.63    2.95
   1   1 -12    2.34    3.18
  -1  -1  11  351.63   10.02
   1   1 -11  343.76    9.72
  -1  -1  10  597.14   16.07
   1   1 -10  606.22   16.19
  -1  -1   9  145.94    5.37
   1   1  -9  138.90    4.92
  -1  -1   8  173.66    5.86
   1   1  -8  153.58    5.11
  -1  -1   7  348.79    9.79
   1   1  -7  350.99    9.68
  -1  -1   6   -0.42    2.00
   1   1  -6    0.68    2.04
  -1  -1   5   12.10    2.00
  -1  -1   4  231.44    6.50
   1   1  -4  240.90    6.69
  -1  -1   3  201.64    5.67
   1   1  -3  185.80    5.33
  -1  -1   2   45.42    1.89
   1   1  -2   49.24    1.89
  -1  -1   1  234.51    6.13
   1   1  -1  225.66    5.94
  -1  -1   0  459.86   11.80
  -1  -1   0  460.24   11.80
   1   1   0  444.36   11.42
  -1  -1  -1   87.62    2.57
   1   1   1   90.50    2.65
  -1  -1  -2   11.95    1.29
   1   1   2   11.46    1.29
  -1  -1  -3   85.32    2.91
   1   1   3   86.04    2.99
  -1  -1  -4   36.27    2.16
   1   1   4   30.25    2.23
  -1  -1  -5   23.52    2.08
   1   1   5   16.98    2.12
  -1  -1  -6    2.72    2.12
   1   1   6    4.39    2.23
  -1  -1  -7    6.92    2.27
   1   1   7    2.87    2.53
  -1  -1  -8   36.12    2.84
   1   1   8   35.44    2.99
  -1  -1  -9   62.17    3.33
   1   1   9   67.47    3.71
  -1  -1 -10    6.66    2.87
   1   1  10    5.60    2.76
  -1  -1 -11    1.55    2.87
   1   1  11   -3.44    2.95
  -1  -1 -12   38.23    3.29
   1   1  12   40.99    3.48
  -1  -1 -13   27.34    3.52
   1   1  13   19.36    3.37
  -1  -2  14  103.24    4.73
   1   2 -14  100.82    4.54
  -1  -2  13  212.69    6.69
   1   2 -13  199.00    6.32
  -1  -2  12  727.23   19.25
   1   2 -12  723.07   19.10
  -1  -2  11  922.37   24.13
   1   2 -11  973.43   25.38
  -1  -2  10  179.52    6.05
   1   2 -10  175.97    5.90
  -1  -2   9 4632.67  117.92
   1   2  -9 4666.70  118.56
  -1  -2   8 5786.11  147.00
   1   2  -8 5721.82  145.26
  -1  -2   7 9734.28  246.72
   1   2  -7 9999.00  253.34
  -1  -2   6 7419.83  188.18
   1   2  -6 8089.21  205.09
  -1  -2   5 6160.50  156.19
  -1  -2   1 1774.03   45.15
   1   2  -1 1690.45   43.04
   1   2   0 1600.45   40.77
  -1  -2  -4 2000.18   51.09
   1   2   4 1995.26   51.05
  -1  -2  -5 1741.88   44.59
   1   2   5 1720.71   44.13
  -1  -2  -6 1780.84   45.61
   1   2   6 1842.48   47.23
  -1  -2  -7  910.27   23.67
   1   2   7  980.99   25.56
  -1  -2  -8  112.24    4.27
   1   2   8  108.61    4.39
  -1  -2  -9  832.75   21.78
   1   2   9  834.64   21.90
  -1  -2 -10  135.92    4.84
   1   2  10  141.06    4.92
  -1  -2 -11   10.89    2.95
   1   2  11   -3.25    3.10
  -1  -2 -12   65.05    3.82
   1   2  12   71.21    4.05
  -1  -3  14   -5.11    3.48
   1   3 -14   -1.47    3.10
  -1  -3  13    0.61    3.29
   1   3 -13    5.71    2.99
  -1  -3  12    2.38    3.03
   1   3 -12    5.03    2.91
  -1  -3  11   43.64    3.52
   1   3 -11   33.73    3.40
  -1  -3  10    8.24    2.87
   1   3 -10   13.20    2.76
  -1  -3   9   74.73    3.97
   1   3  -9   69.02    3.33
  -1  -3   8   58.88    3.44
   1   3  -8   61.95    3.14
  -1  -3   7  146.28    4.99
   1   3  -7  149.19    4.80
  -1  -3   6  305.76    8.66
   1   3  -6  281.86    7.90
  -1  -3   5  391.04   10.63
   1   3  -5  399.35   10.74
  -1  -3   4   50.45    2.50
   1   3  -4   46.36    2.27
  -1  -3   3  649.33   16.94
   1   3  -3  651.22   16.98
  -1  -3   2 2864.31   72.87
   1   3  -2 2734.60   69.55
  -1  -3   1   18.04    1.74
   1   3  -1   15.96    1.55
  -1  -3   0  571.05   14.90
  -1  -3   0  590.33   15.35
   1   3   0  533.23   13.92
  -1  -3  -1   12.63    1.63
  -1  -3  -1   14.94    1.51
   1   3   1   14.45    1.63
  -1  -3  -2   45.46    2.27
  -1  -3  -2   43.00    2.12
   1   3   2   42.62    2.19
  -1  -3  -3  197.79    5.75
   1   3   3  197.60    5.86
  -1  -3  -4   26.85    2.12
   1   3   4   22.80    2.23
  -1  -3  -5  427.72   11.53
   1   3   5  411.46   11.23
  -1  -3  -6    2.38    2.23
   1   3   6    1.97    2.38
  -1  -3  -7    5.60    2.42
   1   3   7    2.99    2.61
  -1  -3  -8   80.97    3.86
   1   3   8   81.19    3.82
  -1  -3  -9   23.64    3.18
   1   3   9   22.88    2.99
  -1  -3 -10    7.00    2.91
   1   3  10   14.75    3.10
  -1  -3 -11   32.18    3.25
   1   3  11   28.78    3.25
  -1  -3 -12    7.03    3.63
   1   3  12    9.91    3.44
  -1  -4  14  429.99   11.95
   1   4 -14  433.77   11.87
  -1  -4  13 1012.76   26.40
   1   4 -13  955.28   24.85
  -1  -4  12  276.33    8.24
   1   4 -12  270.81    8.17
  -1  -4  11  216.85    6.81
   1   4 -11  208.34    6.73
  -1  -4  10 1172.35   30.44
   1   4 -10 1144.74   29.65
  -1  -4   9 1595.15   41.22
   1   4  -9 1410.22   36.38
  -1  -4   8 1488.88   38.38
   1   4  -8 1507.41   38.76
  -1  -4   7 1590.23   40.92
   1   4  -7 1499.85   38.61
  -1  -4   6 1045.28   27.12
   1   4  -6  968.51   25.11
  -1  -4   5 6111.34  155.05
   1   4  -5 5823.93  147.79
  -1  -4   4 6712.64  170.26
  -1  -4   2 3709.92   94.28
   1   4  -2 3641.09   92.54
  -1  -4   1 2916.12   74.20
   1   4  -1 2689.22   68.45
  -1  -4   0  346.11    9.42
  -1  -4   0  343.35    9.27
   1   4   0  320.73    8.70
  -1  -4  -1  990.07   25.60
  -1  -4  -1  985.15   25.41
  -1  -4  -2 2601.10   66.33
  -1  -4  -2 2717.58   69.24
   1   4   2 2817.04   71.82
  -1  -4  -3  628.91   16.60
  -1  -4  -3  597.14   15.73
   1   4   3  651.22   17.13
  -1  -4  -4 1100.12   28.48
  -1  -4  -4 1118.27   28.85
   1   4   4 1111.84   28.82
  -1  -4  -5  155.54    5.03
   1   4   5  159.10    5.26
  -1  -4  -6 1594.39   40.92
   1   4   6 1664.36   42.81
  -1  -4  -7 1970.68   50.49
   1   4   7 2152.21   55.14
  -1  -4  -8 1805.80   46.25
   1   4   8 1863.66   47.80
  -1  -4  -9 1261.22   32.52
   1   4   9 1302.06   33.62
  -1  -4 -10  351.82    9.83
   1   4  10  367.85   10.36
  -1  -4 -11  690.17   18.30
   1   4  11  683.37   18.08
  -1  -5  14   43.34    3.78
   1   5 -14   52.79    3.93
  -1  -5  13   37.97    3.67
   1   5 -13   41.22    3.33
  -1  -5  12   77.64    4.12
   1   5 -12   84.79    4.08
  -1  -5  11   78.59    4.12
   1   5 -11   80.55    3.97
   1   5 -10   13.31    3.37
  -1  -5   9   -3.86    2.99
   1   5  -9    4.01    2.76
  -1  -5   8    4.27    2.91
   1   5  -8    3.93    2.53
  -1  -5   7   23.94    2.65
   1   5  -7   22.12    2.69
  -1  -5   6  191.36    6.01
   1   5  -6  190.87    5.98
  -1  -5   5   88.57    3.67
   1   5  -5   95.38    3.59
  -1  -5   4  162.65    5.11
   1   5  -4  155.28    4.95
  -1  -5   3 1106.17   28.63
   1   5  -3 1071.75   27.68
  -1  -5   2  153.20    4.95
   1   5  -2  140.76    4.46
  -1  -5   1  670.89   17.62
   1   5  -1  654.25   17.13
  -1  -5   0   92.62    3.55
  -1  -5   0   84.03    3.18
   1   5   0   82.29    3.18
  -1  -5  -1   18.61    2.16
  -1  -5  -1   18.87    2.00
  -1  -5  -2  382.34   10.48
  -1  -5  -2  375.08   10.21
  -1  -5  -3   -3.33    2.00
  -1  -5  -3    2.08    2.23
   1   5   3   -0.42    2.12
  -1  -5  -4  501.46   13.43
  -1  -5  -4  493.52   13.24
   1   5   4  541.17   14.52
  -1  -5  -5  399.35   10.97
  -1  -5  -5  392.17   10.74
   1   5   5  411.08   11.27
  -1  -5  -6   71.89    3.44
  -1  -5  -6   70.00    3.40
   1   5   6   79.91    3.82
  -1  -5  -7  179.41    5.86
  -1  -5  -7  181.98    5.94
   1   5   7  182.92    5.98
  -1  -5  -8    5.33    3.06
  -1  -5  -8    5.79    2.91
   1   5   8   -2.27    2.99
  -1  -5  -9   41.22    3.25
  -1  -5  -9   33.85    3.03
   1   5   9   43.72    3.48
  -1  -5 -10    6.43    3.10
  -1  -5 -10   10.32    3.48
   1   5  10   10.02    3.25
  -1  -6  14  910.65   23.75
   1   6 -14  900.06   23.37
  -1  -6  13 1230.97   31.84
   1   6 -13 1215.84   31.46
  -1  -6  12  465.54   12.78
   1   6 -12  470.45   12.78
   1   6 -11 2314.07   59.22
  -1  -6  10 2719.09   69.47
   1   6 -10 2592.03   66.29
  -1  -6   9 2091.70   53.63
   1   6  -9 2083.38   53.47
  -1  -6   8 1275.59   33.01
   1   6  -8 1258.95   32.56
  -1  -6   7  313.66    9.04
   1   6  -7  306.51    8.77
  -1  -6   6 1095.20   28.48
   1   6  -6 1093.31   28.36
  -1  -6   5 1196.93   30.97
   1   6  -5 1136.04   29.42
  -1  -6   4 3823.37   97.27
   1   6  -4 3622.56   92.20
  -1  -6   3  612.27   16.30
   1   6  -3  561.97   14.98
  -1  -6   2 1291.47   33.36
   1   6  -2 1205.63   31.12
  -1  -6   1  493.14   13.24
  -1  -6   1  478.77   12.82
   1   6  -1  470.83   12.63
  -1  -6   0 1365.22   35.13
  -1  -6   0 1327.78   34.15
   1   6   0 1277.10   32.90
  -1  -6  -1 2549.67   65.01
  -1  -6  -1 2461.55   62.85
  -1  -6  -2  453.43   12.29
  -1  -6  -2  450.79   12.14
  -1  -6  -3  324.40    9.11
  -1  -6  -3  315.02    8.85
  -1  -6  -4  239.88    7.15
  -1  -6  -4  235.98    6.96
   1   6   4  260.60    7.71
  -1  -6  -5  185.27    5.86
  -1  -6  -5  184.13    5.82
   1   6   5  202.48    6.35
  -1  -6  -6  257.43    7.53
  -1  -6  -6  243.85    7.19
   1   6   6  262.19    7.79
  -1  -6  -7  153.35    5.18
  -1  -6  -7  140.34    4.95
   1   6   7  142.46    5.11
  -1  -6  -8  203.88    6.35
  -1  -6  -8  207.20    6.47
   1   6   8  224.45    7.00
  -1  -6  -9   29.76    3.55
  -1  -6  -9   23.79    3.29
   1   6   9   26.40    3.33
  -1  -7  14   93.64    4.54
   1   7 -14   86.07    4.12
  -1  -7  13  228.76    7.15
   1   7 -13  226.75    6.96
  -1  -7  11   94.28    4.24
   1   7 -11   88.27    4.50
  -1  -7  10  159.97    5.63
   1   7 -10  156.57    5.98
  -1  -7   9  145.56    5.52
   1   7  -9  143.29    5.37
  -1  -7   8   66.75    3.63
   1   7  -8   61.04    3.78
  -1  -7   7   53.25    3.55
   1   7  -7   52.04    3.67
  -1  -7   6    7.90    2.50
   1   7  -6    8.51    2.53
  -1  -7   5   45.08    2.95
   1   7  -5   38.65    2.95
  -1  -7   4  190.30    6.09
   1   7  -4  188.11    5.90
  -1  -7   3   25.34    2.50
   1   7  -3   25.60    2.65
  -1  -7   2    8.06    2.31
   1   7  -2    8.62    2.38
  -1  -7   1   69.66    3.25
  -1  -7   1   65.50    3.06
   1   7  -1   61.72    3.10
  -1  -7   0    7.37    2.38
  -1  -7   0    7.15    2.08
   1   7   0    7.26    2.23
  -1  -7  -1  104.45    4.01
  -1  -7  -1  109.78    4.01
  -1  -7  -2   19.44    2.53
  -1  -7  -2   17.40    2.57
  -1  -7  -3   88.49    3.74
  -1  -7  -3   91.97    3.90
  -1  -7  -4    3.37    2.42
  -1  -7  -4    5.98    2.53
  -1  -7  -5   -1.25    2.76
  -1  -7  -5   -1.06    2.69
  -1  -7  -6   18.49    3.18
  -1  -7  -6   13.92    2.87
   1   7   6   10.25    2.87
  -1  -7  -7    9.83    3.06
  -1  -7  -7   12.22    2.99
   1   7   7   12.22    3.21
  -1  -7  -8   -4.08    3.63
  -1  -7  -8    0.91    2.95
   1   7   8    4.99    3.29
  -1  -8  12  383.09   10.78
   1   8 -12  359.38   10.51
  -1  -8  11  502.60   13.69
   1   8 -11  488.23   13.65
  -1  -8  10 1376.94   35.55
   1   8 -10 1268.03   33.01
  -1  -8   9  398.98   11.19
   1   8  -9  373.30   10.70
  -1  -8   8  240.60    7.37
   1   8  -8  234.21    7.34
  -1  -8   7  115.87    4.61
   1   8  -7  105.02    4.39
  -1  -8   6  206.14    6.39
   1   8  -6  198.69    6.35
  -1  -8   5 2194.18   56.16
   1   8  -5 2104.18   53.89
  -1  -8   4   45.23    3.10
   1   8  -4   46.78    3.06
  -1  -8   3   20.19    2.50
   1   8  -3   21.25    2.72
  -1  -8   2  350.42    9.76
  -1  -8   2  352.20    9.83
   1   8  -2  337.07    9.53
  -1  -8   1 1278.99   32.98
  -1  -8   1 1253.28   32.33
   1   8  -1 1177.64   30.48
  -1  -8   0 2941.84   74.95
  -1  -8   0 2865.45   73.06
   1   8   0 2703.59   69.06
  -1  -8  -1 2149.56   54.99
  -1  -8  -1 2178.68   55.71
  -1  -8  -2 2469.87   63.04
  -1  -8  -2 2540.21   64.86
  -1  -8  -3 3013.69   76.88
  -1  -8  -3 2962.64   75.48
  -1  -8  -4 3492.84   88.91
  -1  -8  -4 3241.35   82.52
  -1  -8  -5 1995.26   51.09
  -1  -8  -5 2026.65   51.85
  -1  -8  -6 2624.93   66.98
  -1  -8  -6 2596.56   66.18
  -1  -8  -7 1179.16   30.48
  -1  -8  -7 1159.11   29.95
  -1  -9  12    6.73    3.44
   1   9 -12    6.69    3.71
  -1  -9  11   85.69    4.35
   1   9 -11   83.24    4.65
  -1  -9  10    8.02    3.14
   1   9 -10    5.86    3.37
  -1  -9   9   40.01    3.71
   1   9  -9   33.54    3.63
  -1  -9   8    3.21    3.29
   1   9  -8    2.65    3.14
  -1  -9   7   20.61    3.37
   1   9  -7   28.51    3.37
  -1  -9   6  307.46    8.92
   1   9  -6  301.48    9.08
  -1  -9   5   63.08    3.52
   1   9  -5   54.65    3.78
  -1  -9   4   17.47    3.18
   1   9  -4   12.78    2.84
  -1  -9   3   54.00    3.10
  -1  -9   3   61.30    3.06
   1   9  -3   55.02    3.59
  -1  -9   2    1.25    2.65
  -1  -9   2    3.21    2.57
   1   9  -2    2.00    2.91
  -1  -9   1   17.62    2.69
  -1  -9   1   19.51    2.57
   1   9  -1   14.03    3.10
  -1  -9   0   17.51    2.69
  -1  -9   0   18.68    2.50
  -1  -9  -1   27.80    2.80
  -1  -9  -1   23.11    2.76
  -1  -9  -2   45.57    3.14
  -1  -9  -2   35.36    2.84
  -1  -9  -3  104.72    4.31
  -1  -9  -3  105.25    4.20
  -1  -9  -4    9.76    3.06
  -1  -9  -4   11.61    2.91
  -1  -9  -5   37.59    3.44
  -1  -9  -5   35.02    3.52
  -1  -9  -6   38.12    3.63
  -1  -9  -6   40.12    3.67
   1  10 -12   34.49    4.46
  -1 -10  11  244.49    7.37
   1  10 -11  238.93    7.79
  -1 -10  10   94.96    4.24
   1  10 -10   87.77    4.54
  -1 -10   9  109.14    4.77
   1  10  -9  114.55    5.26
  -1 -10   8  420.53   11.65
   1  10  -8  394.06   11.23
  -1 -10   7 1071.75   27.83
   1  10  -7 1079.32   28.21
  -1 -10   6 3750.38   95.45
   1  10  -6 3576.80   91.14
  -1 -10   5  707.57   18.80
   1  10  -5  632.31   16.98
  -1 -10   4 1084.99   28.17
   1  10  -4 1040.74   27.23
  -1 -10   3 1027.51   26.70
  -1 -10   3  992.34   25.83
   1  10  -3  925.02   24.28
  -1 -10   2 1109.95   28.78
  -1 -10   2 1178.02   30.48
   1  10  -2 1147.39   29.91
  -1 -10   1 1358.41   35.06
  -1 -10   1 1356.14   34.91
   1  10  -1 1353.12   35.06
  -1 -10   0  152.71    5.33
  -1 -10   0  141.82    4.95
  -1 -10  -1  145.48    5.07
  -1 -10  -1  145.75    4.95
  -1 -10  -2  176.99    5.71
  -1 -10  -2  182.81    6.01
  -1 -10  -3  209.59    6.58
  -1 -10  -3  211.14    6.50
  -1 -10  -4   79.80    4.16
  -1 -10  -4   78.96    3.86
  -1 -11  10   15.77    3.63
   1  11 -10    1.97    3.71
  -1 -11   9   25.53    3.29
   1  11  -9   25.45    3.74
  -1 -11   8   13.92    3.18
   1  11  -8   13.65    3.52
  -1 -11   7   23.03    3.48
   1  11  -7   19.85    3.40
  -1 -11   6   86.22    4.05
   1  11  -6   79.11    4.16
  -1 -11   5   10.74    3.37
   1  11  -5   14.75    3.67
  -1 -11   4   11.69    2.65
  -1 -11   4   16.83    2.87
   1  11  -4    8.77    3.44
  -1 -11   3   34.83    3.18
  -1 -11   3   31.88    3.06
   1  11  -3   30.44    3.59
  -1 -11   2    6.05    2.91
  -1 -11   2    8.96    2.76
   1  11  -2    3.90    3.18
  -1 -11   1    2.16    2.87
  -1 -11   1    9.30    2.76
  -1 -11   0    6.88    2.95
  -1 -11   0    9.04    2.61
  -1 -11  -1    5.14    2.87
  -1 -11  -1    5.94    2.80
  -1 -11  -2    2.27    2.99
  -1 -11  -2    5.75    3.25
  -1 -12   8  444.36   12.25
   1  12  -8  424.69   11.87
  -1 -12   7  606.22   16.15
   1  12  -7  569.91   15.51
  -1 -12   6  457.97   12.48
   1  12  -6  437.93   12.37
  -1 -12   5  722.70   19.06
  -1 -12   5  760.14   19.89
   1  12  -5  751.44   19.93
  -1 -12   4  549.87   14.67
  -1 -12   4  539.66   14.45
   1  12  -4  510.16   14.03
  -1 -12   3 1291.85   33.28
  -1 -12   3 1297.15   33.32
   1  12  -3 1259.71   32.67
  -1 -12   2 1579.65   40.46
  -1 -12   2 1667.38   42.77
   1  12  -2 1609.14   41.45
  -1 -12   1 1098.23   28.33
  -1 -12   1 1067.59   27.68
  -1 -12   0 1128.86   29.31
  -1 -12   0 1064.95   27.68
   2 -12   0  149.99    5.26
   2 -12   0  142.88    5.11
  -2  12  -1   12.48    3.29
   2 -12   1   11.35    3.10
   2 -12   1    8.28    2.72
  -2  12  -2  433.77   12.10
   2 -12   2  444.74   11.99
   2 -12   2  466.67   12.59
  -2  12  -3  495.79   13.73
   2 -12   3  514.70   13.77
   2 -12   3  546.09   14.60
  -2  12  -4  341.15   10.06
   2 -12   4  351.78    9.87
   2 -12   4  362.97   10.17
  -2  12  -5  523.02   14.18
   2 -12   5  567.64   15.39
  -2  12  -6  728.37   19.06
   2 -12   6  757.87   20.01
   2 -11  -3   11.57    2.95
   2 -11  -3    9.95    3.14
   2 -11  -2    1.89    2.99
   2 -11  -2   -0.83    2.80
   2 -11  -1    2.57    2.65
   2 -11  -1    6.58    2.84
   2 -11   0   27.08    3.29
   2 -11   0   34.49    2.91
  -2  11  -1    2.99    3.25
   2 -11   1   -3.52    2.87
   2 -11   1    2.00    2.84
  -2  11  -2   22.61    3.78
   2 -11   2   25.07    3.10
   2 -11   2   24.88    3.03
  -2  11  -3   -0.08    3.10
   2 -11   3    3.44    2.72
   2 -11   3    3.52    2.80
  -2  11  -4    0.38    3.10
   2 -11   4    8.36    3.03
   2 -11   4    1.17    3.06
  -2  11  -5   30.56    3.10
   2 -11   5   29.72    3.18
  -2  11  -6   54.27    3.29
   2 -11   6   51.89    3.90
  -2  11  -7   -0.87    2.87
   2 -11   7    1.66    3.10
  -2  11  -8   13.77    2.99
   2 -11   8   16.64    3.25
  -2  11  -9   -2.23    2.91
   2 -11   9   -0.91    3.71
   2 -10  -5  818.75   21.33
   2 -10  -5  841.82   21.97
   2 -10  -4 1535.40   39.37
   2 -10  -4 1536.16   39.44
   2 -10  -3 1259.33   32.45
   2 -10  -3 1269.16   32.71
   2 -10  -2 2056.90   52.64
   2 -10  -2 2025.89   51.77
   2 -10  -1  909.52   23.67
   2 -10  -1  940.90   24.54
  -2  10   0  284.01    8.55
   2 -10   0  313.36    8.89
   2 -10   0  294.79    8.55
  -2  10  -1  211.44    7.00
   2 -10   1  221.73    6.77
   2 -10   1  222.56    6.85
  -2  10  -2  198.32    6.66
   2 -10   2  212.50    6.66
   2 -10   2  236.81    7.19
  -2  10  -3  576.72   15.47
   2 -10   3  620.21   16.53
   2 -10   3  611.89   16.41
  -2  10  -4   51.28    3.25
   2 -10   4   52.76    3.37
  -2  10  -5  161.63    5.48
   2 -10   5  178.58    5.86
  -2  10  -6   29.50    3.06
   2 -10   6   40.73    3.33
  -2  10  -7  305.79    8.85
   2 -10   7  343.38    9.72
  -2  10  -8  510.16   13.80
   2 -10   8  568.40   15.28
  -2  10  -9  275.58    8.06
   2 -10   9  286.24    8.43
  -2  10 -10  414.10   11.46
   2 -10  10  443.98   12.22
   2  -9  -7   55.78    3.55
   2  -9  -7   46.78    3.37
   2  -9  -6   69.85    3.86
   2  -9  -6   66.03    3.55
   2  -9  -5   73.18    3.82
   2  -9  -5   62.85    3.52
   2  -9  -4   -0.64    2.57
   2  -9  -4    3.21    2.69
   2  -9  -3   61.45    3.37
   2  -9  -3   59.87    3.40
   2  -9  -2   -1.06    2.69
   2  -9  -2   -0.42    2.76
   2  -9  -1    7.49    2.50
   2  -9  -1    8.24    2.84
  -2   9   0  154.33    5.71
   2  -9   0  167.80    5.56
   2  -9   0  165.34    5.56
  -2   9  -1    3.25    2.87
   2  -9   1    6.32    2.50
   2  -9   1    4.84    2.57
  -2   9  -2   92.28    4.20
   2  -9   2   89.21    4.24
   2  -9   2   86.68    3.82
  -2   9  -3  205.46    6.35
   2  -9   3  213.33    6.66
   2  -9   3  229.36    6.96
  -2   9  -4  183.00    5.82
   2  -9   4  215.71    6.58
  -2   9  -5   15.81    2.76
   2  -9   5   12.59    3.14
  -2   9  -6   29.46    3.29
   2  -9   6   29.46    2.99
  -2   9  -7   49.01    3.37
   2  -9   7   50.45    3.40
  -2   9  -8  150.21    5.22
   2  -9   8  154.98    5.45
  -2   9  -9   99.95    4.31
   2  -9   9  113.42    4.61
  -2   9 -10   18.72    3.18
   2  -9  10   21.10    3.25
  -2   9 -11   66.48    3.82
   2  -9  11   62.44    3.97
  -2   8   8   96.70    4.39
   2  -8  -8  108.31    4.39
   2  -8  -8   96.13    4.24
  -2   8   7  121.09    5.03
   2  -8  -7  102.03    4.16
   2  -8  -7  109.22    4.77
  -2   8   6   49.39    3.52
   2  -8  -6   48.14    3.44
   2  -8  -6   49.99    3.55
   2  -8  -5   92.92    4.01
   2  -8  -5   91.52    3.86
   2  -8  -4  144.80    5.26
   2  -8  -4  152.44    5.11
   2  -8  -3  844.85   22.09
   2  -8  -3  858.46   22.58
   2  -8  -2  398.98   11.08
   2  -8  -2  389.52   10.70
   2  -8  -1  414.86   11.35
   2  -8  -1  433.77   12.03
  -2   8   0  616.43   16.68
   2  -8   0  574.45   15.39
   2  -8   0  602.44   16.19
  -2   8  -1  871.32   22.77
   2  -8   1  923.13   24.13
   2  -8   1  935.23   24.43
  -2   8  -2 3309.05   84.26
   2  -8   2 3563.56   90.80
   2  -8   2 3516.67   89.63
  -2   8  -3  563.86   15.13
   2  -8   3  617.18   16.53
  -2   8  -4  631.18   16.79
   2  -8   4  670.13   17.89
  -2   8  -5  808.54   21.18
   2  -8   5  873.59   22.92
  -2   8  -6 1184.45   30.67
   2  -8   6 1274.08   32.94
  -2   8  -7 2350.75   60.13
   2  -8   7 2413.53   61.68
  -2   8  -8 1202.60   31.12
   2  -8   8 1313.79   33.96
  -2   8  -9 1610.66   41.37
   2  -8   9 1752.47   45.00
  -2   8 -10 1949.88   49.88
   2  -8  10 2049.34   52.45
  -2   8 -11 1642.04   42.17
   2  -8  11 1731.67   44.44
  -2   8 -12  754.08   19.78
   2  -8  12  790.77   20.80
  -2   7  10    3.33    3.40
   2  -7 -10   -3.03    3.63
   2  -7 -10    1.70    3.37
  -2   7   9    4.08    3.21
   2  -7  -9    3.55    3.06
   2  -7  -9    1.74    3.29
  -2   7   8   10.66    3.10
   2  -7  -8    6.28    2.95
   2  -7  -8   -0.11    3.03
  -2   7   7   -0.08    2.95
   2  -7  -7    5.37    2.84
   2  -7  -7    4.16    3.29
  -2   7   6  105.89    4.58
   2  -7  -6  101.54    4.54
   2  -7  -6  102.60    4.16
  -2   7   5   16.64    2.91
   2  -7  -5   13.65    2.91
   2  -7  -5   13.77    3.06
  -2   7   4   57.75    3.52
   2  -7  -4   47.65    3.21
   2  -7  -4   50.11    3.03
   2  -7  -3  101.31    4.01
   2  -7  -3   97.68    3.93
   2  -7  -2   30.78    2.99
   2  -7  -2   30.59    2.76
   2  -7  -1  267.64    7.71
   2  -7  -1  275.65    8.13
  -2   7   0   -0.61    2.27
   2  -7   0    0.95    2.27
   2  -7   0    4.08    2.65
  -2   7  -1  220.74    6.58
   2  -7   1  231.67    6.88
   2  -7   1  220.74    6.81
  -2   7  -2  390.28   10.78
   2  -7   2  412.59   11.46
  -2   7  -3   91.75    3.74
   2  -7   3   99.65    4.05
  -2   7  -4   59.98    3.37
   2  -7   4   60.77    3.33
  -2   7  -5   71.17    3.48
   2  -7   5   68.26    3.55
  -2   7  -6    1.44    2.87
   2  -7   6   -1.44    3.06
  -2   7  -7   65.42    3.52
   2  -7   7   66.11    3.52
  -2   7  -8   47.73    3.71
   2  -7   8   40.28    3.18
  -2   7  -9    6.20    3.03
   2  -7   9    5.98    3.25
  -2   7 -10  101.88    4.39
   2  -7  10  108.20    4.54
  -2   7 -11  117.23    4.99
   2  -7  11  127.67    5.26
  -2   7 -12   19.40    3.67
   2  -7  12   25.91    3.74
  -2   6  11  235.23    7.56
   2  -6 -11  241.88    7.34
   2  -6 -11  226.60    6.88
  -2   6  10  521.51   14.18
   2  -6 -10  512.05   13.88
   2  -6 -10  543.44   14.56
  -2   6   9  608.11   16.22
   2  -6  -9  608.11   16.22
   2  -6  -9  598.28   15.96
  -2   6   8  509.78   13.80
   2  -6  -8  462.13   12.63
   2  -6  -8  486.71   13.16
  -2   6   7   14.41    3.18
   2  -6  -7   13.77    3.25
   2  -6  -7   16.53    2.76
  -2   6   6  856.57   22.46
   2  -6  -6  798.33   21.03
   2  -6  -6  842.58   22.05
  -2   6   5  811.57   21.40
   2  -6  -5  807.79   21.22
   2  -6  -5  783.96   20.65
  -2   6   4  833.12   21.97
   2  -6  -4  769.59   20.31
   2  -6  -4  792.66   20.80
  -2   6   3  377.99   10.66
   2  -6  -3  348.83    9.64
   2  -6  -3  364.26   10.21
   2  -6  -2  147.41    4.88
   2  -6  -2  147.79    5.18
  -2   6   1 1787.64   45.84
   2  -6  -1 1989.59   51.05
   2  -6  -1 1937.78   49.62
  -2   6   0 2696.02   68.79
   2  -6   0 2983.44   76.05
   2  -6   0 2829.14   72.27
  -2   6  -1 5351.20  135.88
   2  -6   1 5926.03  150.44
   2  -6   1 5767.20  146.43
  -2   6  -2 3785.55   96.28
   2  -6   2 4224.24  107.48
  -2   6  -3 5101.61  129.53
   2  -6   3 5687.78  144.54
  -2   6  -4 2781.87   70.91
   2  -6   4 2958.48   75.52
  -2   6  -5 2514.88   64.25
   2  -6   5 2665.01   68.11
  -2   6  -6 3729.96   94.96
   2  -6   6 4031.37  102.75
  -2   6  -7  545.71   14.71
   2  -6   7  565.75   15.28
  -2   6  -8  550.63   14.82
   2  -6   8  586.55   15.73
  -2   6  -9   44.36    3.52
   2  -6   9   45.42    3.33
  -2   6 -10   38.50    3.21
   2  -6  10   45.04    3.63
  -2   6 -11    5.03    3.29
   2  -6  11    0.23    3.40
  -2   6 -12  324.51    9.30
   2  -6  12  321.87    9.27
  -2   6 -13   90.99    4.54
   2  -6  13   93.26    4.54
  -2   5  11   30.18    3.52
   2  -5 -11   16.64    3.25
  -2   5  10   86.34    4.20
   2  -5 -10   85.85    4.08
  -2   5   9   11.72    3.40
   2  -5  -9    7.45    2.99
  -2   5   8   -1.29    2.76
   2  -5  -8    2.53    2.65
  -2   5   7  122.91    4.92
   2  -5  -7  108.50    4.31
   2  -5  -7  110.09    4.24
  -2   5   6   12.93    3.21
   2  -5  -6   12.18    2.91
   2  -5  -6   12.22    2.65
  -2   5   5    6.24    2.65
   2  -5  -5    4.12    2.50
   2  -5  -5    8.92    2.27
  -2   5   4    5.26    2.65
   2  -5  -4    5.56    2.34
   2  -5  -4    4.31    2.16
   2  -5  -3    2.91    2.08
   2  -5  -2   11.42    1.97
   2  -5  -2    4.92    2.16
  -2   5   1    4.88    1.85
   2  -5  -1    3.48    2.19
   2  -5  -1    6.54    1.89
  -2   5   0   35.02    2.27
   2  -5   0   33.28    2.27
   2  -5   0   40.58    2.72
  -2   5  -1   41.03    2.34
   2  -5   1   39.75    2.57
  -2   5  -2   59.83    2.87
   2  -5   2   65.80    3.06
  -2   5  -3  213.67    6.35
   2  -5   3  244.83    7.19
  -2   5  -4   16.41    2.04
   2  -5   4   19.48    2.46
  -2   5  -5   51.66    2.91
   2  -5   5   68.56    3.44
  -2   5  -6   19.17    2.76
   2  -5   6   20.16    2.72
  -2   5  -7  127.60    4.73
   2  -5   7  131.00    4.80
  -2   5  -8  419.78   11.57
   2  -5   8  443.22   12.29
  -2   5  -9   80.89    3.97
   2  -5   9   75.56    3.90
  -2   5 -10   23.30    2.99
   2  -5  10   12.52    3.06
  -2   5 -11   70.42    4.01
   2  -5  11   67.96    3.97
  -2   5 -12   -0.04    3.03
   2  -5  12   -2.04    3.40
  -2   5 -13    2.72    3.18
   2  -5  13    2.76    3.63
  -2   4  12  268.05    8.06
   2  -4 -12  268.69    7.98
  -2   4  11  499.95   13.69
   2  -4 -11  501.46   13.50
  -2   4  10 1130.75   29.35
   2  -4 -10 1118.27   28.97
  -2   4   9 1170.84   30.37
   2  -4  -9 1147.77   29.69
  -2   4   8   45.87    3.33
   2  -4  -8   44.10    3.29
  -2   4   7 5181.02  131.68
   2  -4  -7 5268.01  133.80
  -2   4   6 5721.82  145.41
   2  -4  -6 5559.20  141.10
  -2   4   5 5608.36  142.57
   2  -4  -5 5729.38  145.45
  -2   4   4 4889.83  124.46
  -2   4   3 1469.97   37.78
   2  -4  -3 1377.70   35.51
   2  -4  -3 1288.83   33.13
  -2   4   1 4761.25  120.94
  -2   4   0 1231.34   31.73
   2  -4   0 1328.54   34.11
   2  -4   0 1352.74   34.79
  -2   4  -1 3070.42   78.13
   2  -4   1 3209.97   81.72
  -2   4  -2 3423.26   87.06
   2  -4   2 3565.07   90.72
  -2   4  -3  207.73    6.09
   2  -4   3  236.74    7.00
  -2   4  -4 2812.88   71.66
   2  -4   4 3048.48   77.75
  -2   4  -5 5404.15  137.20
   2  -4   5 5740.73  145.79
  -2   4  -6 3561.67   90.65
   2  -4   6 3705.38   94.39
  -2   4  -7 4152.38  105.62
   2  -4   7 4413.33  112.32
  -2   4  -8  543.82   14.64
   2  -4   8  561.97   15.20
  -2   4  -9 1974.46   50.56
   2  -4   9 2130.65   54.61
  -2   4 -10 1265.76   32.71
   2  -4  10 1307.36   33.77
  -2   4 -11  946.20   24.62
   2  -4  11 1000.66   26.09
  -2   4 -12  440.95   11.99
   2  -4  12  472.72   12.97
  -2   4 -13   17.55    3.29
   2  -4  13   21.06    3.67
  -2   3  13   11.65    3.44
   2  -3 -13    9.23    3.37
  -2   3  12    9.91    3.29
   2  -3 -12    1.59    3.21
  -2   3  11   -1.06    3.37
   2  -3 -11   -0.38    2.84
  -2   3  10    0.95    2.91
   2  -3 -10    6.09    3.06
  -2   3   9   -2.23    2.76
   2  -3  -9    2.27    2.84
  -2   3   8    7.56    3.18
   2  -3  -8    6.66    2.80
  -2   3   7    1.97    3.10
   2  -3  -7    8.92    2.46
  -2   3   6    9.61    2.69
   2  -3  -6   12.78    2.27
  -2   3   5  136.29    4.73
  -2   3   4    4.80    1.89
   2  -3  -4    0.04    1.97
  -2   3   3   59.34    2.69
   2  -3  -3   54.61    2.69
   2  -3  -3   59.34    2.69
  -2   3   2   37.55    2.34
   2  -3  -2   36.38    2.42
   2  -3  -2   39.90    2.12
  -2   3   1    3.63    1.44
  -2   3   1   -0.15    1.55
   2  -3  -1    2.72    1.51
   2  -3  -1    1.36    1.63
  -2   3   0   19.06    1.74
   2  -3   0   19.97    1.66
   2  -3   0   20.69    1.82
  -2   3  -1   22.69    1.85
   2  -3   1   26.25    2.04
  -2   3  -2  478.39   12.67
   2  -3   2  499.19   13.27
  -2   3  -3   76.88    2.91
   2  -3   3   86.60    3.25
  -2   3  -4   13.84    2.00
   2  -3   4   11.87    2.19
  -2   3  -5   83.12    3.33
   2  -3   5   89.48    3.59
  -2   3  -6   25.94    2.16
   2  -3   6   26.85    2.69
  -2   3  -7 1471.86   37.82
   2  -3   7 1640.15   42.24
  -2   3  -8  315.59    8.92
   2  -3   8  325.31    9.34
  -2   3  -9   40.05    3.10
   2  -3   9   41.15    3.37
  -2   3 -10  601.30   16.00
   2  -3  10  626.64   16.72
  -2   3 -11  103.13    4.16
   2  -3  11  113.72    4.69
  -2   3 -12  159.97    5.33
   2  -3  12  168.40    5.82
  -2   3 -13    0.79    3.10
   2  -3  13    1.02    3.44
  -2   2  13  506.38   13.69
   2  -2 -13  511.30   13.80
  -2   2  12  639.12   17.06
   2  -2 -12  658.03   17.43
  -2   2  11  544.57   14.75
   2  -2 -11  546.09   14.67
  -2   2  10  397.46   11.00
   2  -2 -10  403.51   11.12
  -2   2   9   24.39    2.99
   2  -2  -9   32.18    3.06
  -2   2   8 1350.85   34.98
   2  -2  -8 1402.28   36.12
  -2   2   7 1333.07   34.53
   2  -2  -7 1297.90   33.51
  -2   2   6 2434.70   62.21
  -2   2   5 2543.62   64.90
   2  -2  -5 2561.01   65.27
  -2   2   4  964.35   25.00
   2  -2  -4  923.13   23.90
   2  -2   0 3838.50   97.42
  -2   2  -1 2568.58   65.35
   2  -2   1 2705.86   68.83
  -2   2  -2  294.52    7.94
   2  -2   2  317.74    8.58
  -2   2  -3  260.26    7.19
   2  -2   3  266.69    7.41
  -2   2  -4  154.22    4.69
   2  -2   4  158.19    4.92
  -2   2  -5   13.05    1.97
   2  -2   5   16.53    2.16
  -2   2  -6   32.67    2.42
   2  -2   6   40.62    2.80
  -2   2  -7   81.76    3.44
   2  -2   7   86.49    3.78
  -2   2  -8  461.75   12.48
   2  -2   8  471.96   12.93
  -2   2  -9  417.13   11.46
   2  -2   9  435.66   12.03
  -2   2 -10 1327.02   34.23
   2  -2  10 1287.69   33.28
  -2   2 -11  833.12   21.78
   2  -2  11  873.21   22.84
  -2   2 -12  305.11    8.77
   2  -2  12  298.99    8.70
  -2   2 -13  669.37   17.85
   2  -2  13  635.34   16.90
  -2   1  14   86.34    4.20
   2  -1 -14   97.42    4.42
  -2   1  13   92.05    4.31
   2  -1 -13   86.87    4.05
  -2   1  12   33.85    3.59
   2  -1 -12   27.61    3.40
  -2   1  11  192.98    6.20
   2  -1 -11  207.01    6.58
  -2   1  10  532.47   14.33
   2  -1 -10  540.41   14.56
  -2   1   9  309.12    9.00
   2  -1  -9  302.58    8.77
  -2   1   8   38.73    3.33
   2  -1  -8   49.47    3.06
  -2   1   7  413.73   11.38
   2  -1  -7  493.52   13.43
  -2   1   6   27.12    2.50
   2  -1  -6   25.87    2.34
  -2   1   5   29.04    2.31
   2  -1  -5   36.53    2.27
  -2   1   4  560.84   14.79
   2  -1  -4  565.37   14.82
  -2   1   3   91.93    3.14
   2  -1  -3   83.54    3.03
  -2   1   2 2286.46   58.20
   2  -1  -2 2264.90   57.63
   2  -1  -1 2325.41   59.15
  -2   1   0    1.47    1.02
   2  -1   0    2.42    1.10
   2  -1   0    1.59    0.95
  -2   1  -1  117.84    3.37
   2  -1   1  124.76    3.63
  -2   1  -2   16.30    1.40
   2  -1   2   15.20    1.44
  -2   1  -3    2.65    1.36
   2  -1   3    2.12    1.59
  -2   1  -4   34.30    2.00
   2  -1   4   36.42    2.31
  -2   1  -5   -2.72    1.74
   2  -1   5    3.59    1.89
  -2   1  -6   85.09    3.33
   2  -1   6   91.71    3.55
  -2   1  -7  118.90    4.16
   2  -1   7  134.06    4.73
  -2   1  -8    3.63    2.42
   2  -1   8    6.66    2.72
  -2   1  -9   61.42    3.29
   2  -1   9   59.60    3.52
  -2   1 -10    1.13    2.76
   2  -1  10    2.08    2.95
  -2   1 -11   31.65    3.14
   2  -1  11   30.78    3.29
  -2   1 -12    1.02    3.29
   2  -1  12    6.16    3.25
  -2   1 -13   19.55    3.86
   2  -1  13   19.25    3.48
  -2   0  14  988.93   25.75
   2   0 -14 1001.41   25.94
  -2   0  13 2179.06   55.74
   2   0 -13 2218.39   56.65
  -2   0  12 1893.91   48.56
   2   0 -12 1851.18   47.46
  -2   0  11 2769.01   70.64
   2   0 -11 2784.14   70.98
  -2   0  10 1848.91   47.42
   2   0 -10 1913.20   49.01
  -2   0   9 4054.06  103.20
   2   0  -9 3838.50   97.61
  -2   0   8 2814.01   71.85
   2   0  -8 2982.68   76.05
  -2   0   7 4651.58  118.18
   2   0  -7 4950.34  125.78
  -2   0   6  402.76   11.00
   2   0  -6  433.77   11.69
  -2   0   5   87.43    3.29
   2   0  -5   91.78    3.33
  -2   0   4  162.99    4.92
   2   0  -4  160.65    4.84
  -2   0   3 1147.01   29.46
   2   0  -3 1198.06   30.71
   2   0   0  978.72   25.49
  -2   0  -1 1715.79   43.98
   2   0   1 1735.45   44.47
  -2   0  -4 1183.32   30.37
   2   0   4 1146.63   29.54
  -2   0  -5 2279.27   58.13
   2   0   5 2201.37   56.23
  -2   0  -6 3130.55   79.72
   2   0   6 3101.05   79.04
  -2   0  -7 1391.69   35.78
   2   0   7 1432.91   36.91
  -2   0  -8  513.94   13.77
   2   0   8  512.81   13.92
  -2   0  -9 2570.85   65.61
   2   0   9 2536.43   64.78
  -2   0 -10 1016.92   26.40
   2   0  10 1029.78   26.77
  -2   0 -11  540.79   14.48
   2   0  11  532.10   14.33
  -2   0 -12  606.22   16.26
   2   0  12  620.97   16.45
  -2  -1  14    6.69    3.21
   2   1 -14   -0.49    3.06
  -2  -1  13   11.35    3.18
   2   1 -13   12.93    2.99
  -2  -1  12  195.48    6.24
   2   1 -12  190.71    6.09
  -2  -1  11  218.78    6.92
   2   1 -11  215.64    6.81
  -2  -1  10  100.67    4.46
   2   1 -10  111.68    4.39
  -2  -1   9  146.32    5.11
   2   1  -9  148.77    5.22
  -2  -1   8  845.60   22.20
   2   1  -8  829.34   21.71
  -2  -1   7    6.13    2.34
   2   1  -7    4.31    2.27
  -2  -1   6  318.95    8.92
   2   1  -6  310.07    8.58
  -2  -1   5  371.71   10.14
   2   1  -5  368.91   10.02
  -2  -1   4  316.87    8.66
   2   1  -4  336.96    9.11
  -2  -1   1  468.94   12.10
   2   1  -1  490.50   12.67
  -2  -1  -1   35.51    1.29
   2   1   1   35.25    1.29
  -2  -1  -2   41.41    1.66
   2   1   2   39.37    1.70
  -2  -1  -3  533.61   13.88
   2   1   3  518.10   13.58
  -2  -1  -4   18.91    1.85
   2   1   4   18.49    1.89
  -2  -1  -5   84.56    3.21
   2   1   5   79.38    3.10
  -2  -1  -6  145.60    4.61
   2   1   6  156.75    5.18
  -2  -1  -7   27.83    2.65
   2   1   7   22.54    2.84
  -2  -1  -8  103.85    4.12
   2   1   8   95.34    3.97
  -2  -1  -9   36.53    2.99
   2   1   9   35.09    3.29
  -2  -1 -10   27.08    3.10
   2   1  10   29.31    3.14
  -2  -1 -11   54.57    3.82
   2   1  11   45.04    3.33
  -2  -1 -12   33.36    3.71
   2   1  12   33.96    3.33
  -2  -2  14  108.88    4.61
   2   2 -14  110.05    4.73
  -2  -2  13   54.19    3.86
   2   2 -13   55.78    3.44
  -2  -2  12   16.30    3.06
   2   2 -12   13.05    3.25
  -2  -2  11  439.44   12.29
   2   2 -11  395.19   11.04
  -2  -2  10  461.75   12.74
   2   2 -10  471.96   12.93
  -2  -2   9  643.66   17.21
   2   2  -9  600.92   16.15
  -2  -2   8 1040.74   27.08
   2   2  -8  990.07   25.75
  -2  -2   7 1006.71   26.17
   2   2  -7 1063.43   27.57
  -2  -2   6  197.29    6.05
   2   2  -6  193.25    5.79
  -2  -2   5 2817.04   71.78
   2   2  -5 2774.31   70.64
  -2  -2   4 3182.36   80.93
   2   2  -4 3107.86   79.00
  -2  -2   2 1142.47   29.23
   2   2  -2 1112.97   28.48
  -2  -2   1 1502.88   38.38
   2   2  -1 1584.56   40.43
  -2  -2   0 1637.88   41.83
  -2  -2   0 1657.55   42.32
   2   2   0 1613.30   41.18
  -2  -2  -3 3512.51   89.33
   2   2   3 3685.71   93.75
  -2  -2  -4 4765.03  121.05
   2   2   4 4870.92  123.78
  -2  -2  -5 6909.29  175.32
   2   2   5 6943.33  176.31
  -2  -2  -6 3326.07   84.64
   2   2   6 3352.54   85.47
  -2  -2  -7 1961.60   50.18
   2   2   7 1947.23   49.92
  -2  -2  -8 3194.46   81.35
   2   2   8 3123.74   79.61
  -2  -2  -9 1075.16   27.83
   2   2   9 1072.13   27.87
  -2  -2 -10  299.06    8.62
   2   2  10  305.26    8.77
  -2  -2 -11  107.52    4.73
   2   2  11  104.30    4.39
  -2  -3  14   24.39    3.37
   2   3 -14   32.75    3.29
  -2  -3  13   34.68    3.52
   2   3 -13   41.30    3.25
   2   3 -12    2.19    3.06
  -2  -3  11   -1.51    2.95
   2   3 -11   -2.91    3.33
  -2  -3  10    6.28    2.91
   2   3 -10   10.02    2.95
  -2  -3   9    2.65    2.80
   2   3  -9    8.24    2.57
  -2  -3   8   -1.55    2.72
   2   3  -8    3.74    2.46
  -2  -3   7    2.76    2.38
   2   3  -7    7.26    2.34
  -2  -3   6   11.00    2.34
   2   3  -6   12.10    2.04
  -2  -3   5    9.23    1.97
   2   3  -5    5.52    1.70
  -2  -3   4   87.09    3.29
   2   3  -4   87.40    3.10
  -2  -3   3   15.73    1.74
   2   3  -3   11.42    1.63
  -2  -3   2    7.22    1.59
   2   3  -2    2.23    1.29
  -2  -3   1  124.80    3.74
   2   3  -1  107.67    3.29
  -2  -3   0   60.62    2.23
  -2  -3   0   64.33    2.23
   2   3   0   59.45    2.12
  -2  -3  -1   81.27    2.69
  -2  -3  -1   75.86    2.61
  -2  -3  -2  274.63    7.49
  -2  -3  -2  268.28    7.34
   2   3   2  273.99    7.53
  -2  -3  -3   36.19    2.08
  -2  -3  -3   31.05    2.12
   2   3   3   34.38    2.12
  -2  -3  -4  368.00    9.95
   2   3   4  354.65    9.72
  -2  -3  -5  114.13    3.97
   2   3   5  113.87    4.05
  -2  -3  -6   15.39    2.46
   2   3   6   11.69    2.42
  -2  -3  -7  122.60    4.50
   2   3   7  116.78    4.31
  -2  -3  -8   17.51    2.99
   2   3   8   20.61    3.14
  -2  -3  -9   39.75    3.33
   2   3   9   35.74    3.18
  -2  -3 -10    1.32    3.29
   2   3  10   -0.68    3.06
  -2  -3 -11    4.54    3.44
   2   3  11    3.71    3.21
  -2  -4  14  898.93   23.56
   2   4 -14  932.21   24.24
   2   4 -13  690.17   18.46
  -2  -4  12   56.46    3.71
   2   4 -12   45.84    3.82
  -2  -4  11 2163.93   55.48
   2   4 -11 2047.07   52.60
  -2  -4  10 1089.15   28.36
   2   4 -10 1050.20   27.42
  -2  -4   9 1028.26   26.77
   2   4  -9 1025.24   26.70
  -2  -4   8  830.10   21.82
   2   4  -8  847.87   22.24
  -2  -4   7  210.57    6.43
   2   4  -7  199.87    6.05
  -2  -4   6 5827.71  147.91
   2   4  -6 5865.53  148.89
  -2  -4   5 5578.11  141.63
   2   4  -5 5101.61  129.45
  -2  -4   4 6224.79  157.96
   2   4  -4 5854.18  148.55
  -2  -4   1 1482.08   37.93
   2   4  -1 1389.04   35.59
  -2  -4   0 3815.81   96.96
  -2  -4   0 3645.25   92.65
   2   4   0 3496.25   88.87
  -2  -4  -1 2952.43   75.11
  -2  -4  -1 2893.43   73.63
  -2  -4  -2  727.23   18.91
  -2  -4  -2  754.84   19.67
   2   4   2  911.41   23.67
  -2  -4  -3  506.38   13.43
  -2  -4  -3  518.48   13.69
   2   4   3  565.37   14.98
  -2  -4  -4   12.33    2.19
  -2  -4  -4    8.28    2.16
   2   4   4   11.53    2.19
  -2  -4  -5  611.89   16.15
  -2  -4  -5  627.02   16.53
   2   4   5  674.29   17.77
  -2  -4  -6  406.16   11.16
  -2  -4  -6  399.35   10.93
   2   4   6  416.75   11.46
  -2  -4  -7 1094.82   28.33
   2   4   7 1081.96   28.06
  -2  -4  -8  734.42   19.29
   2   4   8  762.78   20.08
  -2  -4  -9  215.45    6.92
   2   4   9  204.86    6.43
  -2  -4 -10  655.76   17.51
   2   4  10  663.70   17.55
  -2  -5  13   55.06    3.78
   2   5 -13   61.34    4.54
  -2  -5  12  219.38    6.92
   2   5 -12  220.40    7.37
  -2  -5  11   64.03    3.86
   2   5 -11   61.72    3.93
  -2  -5  10  130.74    4.99
   2   5 -10  129.22    5.07
  -2  -5   9  118.60    4.58
   2   5  -9  100.90    4.27
  -2  -5   8   69.77    3.52
   2   5  -8   64.63    3.37
  -2  -5   7  236.44    7.07
   2   5  -7  207.01    6.39
  -2  -5   6    3.14    2.19
   2   5  -6    0.34    2.12
  -2  -5   5    1.63    2.23
   2   5  -5   -0.45    1.97
  -2  -5   4  866.40   22.58
   2   5  -4  797.20   20.76
  -2  -5   3    9.57    2.08
   2   5  -3    6.01    1.85
  -2  -5   2  145.37    4.65
   2   5  -2  137.77    4.31
  -2  -5   1  131.57    4.12
  -2  -5   1  130.62    4.24
   2   5  -1  121.32    3.97
  -2  -5   0   -1.25    1.55
  -2  -5   0   -0.30    1.78
   2   5   0    1.02    1.74
  -2  -5  -1  264.80    7.41
  -2  -5  -1  269.07    7.45
  -2  -5  -2   43.91    2.50
  -2  -5  -2   48.97    2.61
  -2  -5  -3  667.86   17.55
  -2  -5  -3  673.53   17.66
   2   5   3  759.00   19.97
  -2  -5  -4  650.09   17.13
  -2  -5  -4  687.15   18.08
   2   5   4  695.85   18.42
  -2  -5  -5   54.76    3.14
  -2  -5  -5   53.85    2.95
   2   5   5   54.57    3.18
  -2  -5  -6  201.49    6.16
  -2  -5  -6  214.09    6.54
   2   5   6  217.60    6.69
  -2  -5  -7    8.02    3.06
  -2  -5  -7   10.14    2.87
   2   5   7    9.61    3.25
  -2  -5  -8   -3.63    3.10
  -2  -5  -8    3.48    3.10
   2   5   8    5.14    3.25
  -2  -5  -9   47.84    3.55
  -2  -5  -9   51.92    4.05
   2   5   9   50.56    3.55
  -2  -6  14  160.04    5.75
   2   6 -14  158.87    6.01
  -2  -6  13   34.83    3.40
   2   6 -13   32.94    3.82
  -2  -6  12 1513.09   39.03
   2   6 -12 1569.43   40.54
  -2  -6  11 1213.57   31.50
   2   6 -11 1170.84   30.56
  -2  -6  10 1944.59   49.92
   2   6 -10 1931.35   49.62
  -2  -6   9  931.45   24.39
   2   6  -9  916.32   24.01
  -2  -6   8  644.04   17.17
   2   6  -8  611.51   16.38
  -2  -6   7 2551.94   65.24
   2   6  -7 2427.52   62.02
  -2  -6   6 2243.72   57.41
   2   6  -6 2142.75   54.84
  -2  -6   5 2959.99   75.48
   2   6  -5 2764.47   70.49
  -2  -6   4 2202.88   56.31
   2   6  -4 2025.14   51.81
  -2  -6   3 3555.24   90.54
   2   6  -3 3332.12   84.86
  -2  -6   2 1920.76   49.16
   2   6  -2 1943.83   49.73
  -2  -6   1 5124.30  130.13
  -2  -6   1 5052.44  128.32
   2   6  -1 4606.20  117.01
  -2  -6   0 6277.74  159.33
   2   6   0 6273.96  159.29
  -2  -6  -1 3761.35   95.68
  -2  -6  -1 3600.62   91.59
  -2  -6  -2 2691.49   68.64
  -2  -6  -2 2703.59   68.98
  -2  -6  -3  463.64   12.48
  -2  -6  -3  456.08   12.25
  -2  -6  -4 1390.93   35.78
  -2  -6  -4 1409.84   36.27
  -2  -6  -5  617.18   16.45
  -2  -6  -5  592.23   15.77
   2   6   5  627.40   16.72
  -2  -6  -6  445.87   12.18
  -2  -6  -6  473.48   12.82
   2   6   6  448.90   12.29
  -2  -6  -7  103.20    4.24
  -2  -6  -7  101.96    4.58
   2   6   7  111.52    4.39
  -2  -6  -8    4.39    3.06
  -2  -6  -8    3.25    3.59
   2   6   8    8.74    3.03
  -2  -6  -9  209.13    7.11
  -2  -7  14   29.76    3.55
   2   7 -14   32.22    4.08
  -2  -7  13   11.31    3.44
   2   7 -13   18.00    4.12
  -2  -7  12   14.48    3.44
   2   7 -12   23.83    3.59
  -2  -7  11  129.94    5.14
   2   7 -11  126.20    5.26
  -2  -7  10   -1.97    3.03
   2   7 -10    0.76    3.63
  -2  -7   9   97.57    4.46
   2   7  -9  104.53    4.65
  -2  -7   8   19.29    3.18
   2   7  -8   21.03    3.44
  -2  -7   7    7.68    2.95
   2   7  -7    4.65    3.18
  -2  -7   6  118.52    4.39
   2   7  -6  115.04    4.42
  -2  -7   5    6.01    2.46
   2   7  -5    0.38    2.53
  -2  -7   4    5.37    2.16
   2   7  -4   11.80    2.50
  -2  -7   3    7.75    2.19
   2   7  -3    4.46    2.31
  -2  -7   2   -1.17    1.93
  -2  -7   2    2.50    2.08
   2   7  -2    0.98    2.42
  -2  -7   1   91.48    3.63
  -2  -7   1   89.14    3.55
   2   7  -1   81.23    3.52
  -2  -7   0   42.89    2.84
  -2  -7   0   42.39    2.72
   2   7   0   42.47    3.03
  -2  -7  -1    3.90    2.27
  -2  -7  -1    5.14    2.12
  -2  -7  -2   65.92    3.29
  -2  -7  -2   73.52    3.52
  -2  -7  -3   96.21    3.90
  -2  -7  -3   90.42    3.78
  -2  -7  -4    6.01    2.65
  -2  -7  -4    6.09    2.61
  -2  -7  -5  104.60    4.27
  -2  -7  -5  111.79    4.50
  -2  -7  -6   17.66    3.10
  -2  -7  -6   15.92    3.37
  -2  -7  -7   16.56    3.21
  -2  -7  -7   11.80    3.33
   2   7   7   15.69    2.99
  -2  -8  13  689.42   18.23
   2   8 -13  687.53   18.42
  -2  -8  12  935.99   24.39
   2   8 -12  926.53   24.39
  -2  -8  11 1716.17   44.06
   2   8 -11 1719.95   44.32
  -2  -8  10 1117.51   29.08
   2   8 -10 1066.46   27.87
  -2  -8   9 1007.46   26.28
   2   8  -9 1001.79   26.28
  -2  -8   8 1129.24   29.38
   2   8  -8 1058.52   27.68
  -2  -8   7 1197.69   31.05
   2   8  -7 1224.54   31.84
  -2  -8   6 2428.65   62.06
   2   8  -6 2286.84   58.50
  -2  -8   5   11.12    2.53
   2   8  -5   12.86    2.69
  -2  -8   4    9.08    2.50
   2   8  -4    7.00    2.61
  -2  -8   3   44.62    2.87
   2   8  -3   37.14    2.91
  -2  -8   2   79.72    3.48
  -2  -8   2   79.34    3.52
   2   8  -2   73.93    3.55
  -2  -8   1  142.95    4.84
  -2  -8   1  157.96    5.14
   2   8  -1  143.86    4.99
  -2  -8   0  185.65    5.79
  -2  -8   0  183.98    5.71
  -2  -8  -1   35.96    2.87
  -2  -8  -1   30.56    2.69
  -2  -8  -2  172.98    5.63
  -2  -8  -2  174.79    5.60
  -2  -8  -3  448.14   12.10
  -2  -8  -3  437.93   12.03
  -2  -8  -4  454.19   12.40
  -2  -8  -4  493.90   13.39
  -2  -8  -5 1479.05   38.01
  -2  -8  -5 1476.40   38.01
  -2  -8  -6  746.14   19.67
  -2  -8  -6  725.72   19.21
  -2  -9  13   39.60    3.63
   2   9 -13   40.88    4.16
  -2  -9  12  132.40    5.26
   2   9 -12  128.54    5.75
  -2  -9  11   35.89    3.44
   2   9 -11   39.18    4.39
  -2  -9  10   61.49    3.67
   2   9 -10   63.99    4.12
  -2  -9   9    3.10    3.33
   2   9  -9    1.36    3.37
  -2  -9   8  225.73    7.00
   2   9  -8  220.67    7.37
  -2  -9   7  359.80   10.17
   2   9  -7  340.36    9.91
  -2  -9   6   -0.95    2.61
   2   9  -6   -1.29    3.14
  -2  -9   5   10.02    2.69
   2   9  -5   11.38    2.87
  -2  -9   4  175.55    5.71
   2   9  -4  178.61    5.86
  -2  -9   3   19.51    2.80
  -2  -9   3   19.63    2.69
   2   9  -3   12.48    2.95
  -2  -9   2    8.47    2.72
  -2  -9   2   11.19    2.61
   2   9  -2    6.66    2.87
  -2  -9   1    5.45    2.57
  -2  -9   1   -2.69    2.53
   2   9  -1    4.42    2.87
  -2  -9   0    1.32    2.69
  -2  -9   0    5.33    2.46
  -2  -9  -1   58.20    3.21
  -2  -9  -1   57.07    3.40
  -2  -9  -2   30.14    2.99
  -2  -9  -2   33.13    3.10
  -2  -9  -3    3.37    3.10
  -2  -9  -3    2.12    3.06
  -2  -9  -4   36.83    3.86
  -2  -9  -4   35.55    3.48
  -2  -9  -5    7.79    3.37
  -2  -9  -5    7.87    3.37
  -2 -10  12  179.48    6.09
   2  10 -12  169.16    6.16
  -2 -10  11   18.76    3.37
   2  10 -11   23.79    3.82
  -2 -10  10    0.98    2.99
   2  10 -10   -1.51    3.82
  -2 -10   9   75.52    4.16
   2  10  -9   70.45    4.12
  -2 -10   8  457.59   12.48
   2  10  -8  450.79   12.52
  -2 -10   7 1629.19   41.86
   2  10  -7 1549.77   39.97
  -2 -10   6  384.61   10.70
   2  10  -6  373.37   10.59
  -2 -10   5  973.81   25.38
   2  10  -5  953.38   24.96
  -2 -10   4 1491.53   38.35
  -2 -10   4 1561.87   40.16
   2  10  -4 1522.16   39.25
  -2 -10   3 2131.78   54.53
  -2 -10   3 2105.69   53.81
   2  10  -3 1997.91   51.28
  -2 -10   2 2645.73   67.47
  -2 -10   2 2638.16   67.24
   2  10  -2 2580.30   65.95
  -2 -10   1  872.83   22.77
  -2 -10   1  885.31   23.07
  -2 -10   0 1047.17   27.15
  -2 -10   0 1050.95   27.19
  -2 -10  -1  953.38   24.85
  -2 -10  -1  940.15   24.51
  -2 -10  -2  692.44   18.34
  -2 -10  -2  675.05   17.89
  -2 -10  -3  292.82    8.58
  -2 -10  -3  310.07    9.00
  -2 -11  10    7.11    3.33
   2  11 -10   14.30    3.78
  -2 -11   9    2.27    3.21
   2  11  -9    6.09    3.71
  -2 -11   8   28.17    3.40
   2  11  -8   30.75    3.97
  -2 -11   7    1.59    2.87
   2  11  -7    5.18    3.44
  -2 -11   6    2.53    3.03
   2  11  -6    3.63    3.14
  -2 -11   5   25.15    2.99
  -2 -11   5   23.90    2.91
   2  11  -5   19.63    3.40
  -2 -11   4   44.62    3.29
  -2 -11   4   45.15    3.03
   2  11  -4   45.46    3.93
  -2 -11   3   14.98    2.95
  -2 -11   3   21.67    3.03
   2  11  -3   15.43    3.48
  -2 -11   2    6.39    2.84
  -2 -11   2    4.69    2.80
   2  11  -2    1.70    3.40
  -2 -11   1   10.55    3.10
  -2 -11   1   11.46    3.03
  -2 -11   0    3.10    3.21
  -2 -11   0    6.32    3.14
  -2 -11  -1    4.92    3.37
  -2 -11  -1   -2.53    3.33
  -2 -12   8  128.81    5.14
   2  12  -8  131.91    5.33
  -2 -12   7   24.09    3.40
   2  12  -7   32.52    3.97
  -2 -12   6  132.89    5.03
   2  12  -6  129.11    5.22
  -2 -12   5   25.68    3.40
  -2 -12   5   18.83    3.14
   2  12  -5   19.32    3.82
  -2 -12   4  453.81   12.33
  -2 -12   4  422.80   11.61
   2  12  -4  423.94   11.99
  -2 -12   3  599.41   16.00
  -2 -12   3  594.12   15.85
   2  12  -3  592.98   16.07
  -2 -12   2  504.49   13.69
  -2 -12   2  500.33   13.54
   3 -12   1  532.47   14.41
   3 -12   1  521.88   14.37
  -3  12  -2  406.54   11.23
  -3  12  -3  433.01   11.87
   3 -12   3  442.47   12.14
   3 -12   3  420.15   11.87
  -3  12  -4  574.83   15.32
   3 -12   4  619.83   16.56
   3 -12   4  586.55   15.81
  -3  12  -5  845.60   22.01
   3 -12   5  871.32   22.88
   3 -12   5  892.12   23.30
   3 -11  -3   -6.66    2.72
   3 -11  -3   -2.12    2.91
   3 -11  -2   -6.73    2.80
   3 -11  -2    0.83    2.95
   3 -11  -1    3.25    2.91
   3 -11  -1    4.20    2.84
   3 -11   0    6.73    3.44
   3 -11   0    4.99    2.87
  -3  11  -1   -2.46    2.84
   3 -11   1   -1.32    2.80
   3 -11   1    7.00    3.18
  -3  11  -2   42.62    3.55
   3 -11   2   48.82    3.40
   3 -11   2   44.62    3.90
  -3  11  -3    1.21    3.21
   3 -11   3    1.59    3.06
   3 -11   3    2.31    2.99
  -3  11  -4   29.50    3.40
   3 -11   4   27.83    3.10
   3 -11   4   32.56    3.78
  -3  11  -5   88.04    4.20
   3 -11   5   80.10    4.12
   3 -11   5   92.80    4.50
  -3  11  -6    2.08    2.87
   3 -11   6   10.32    3.18
  -3  11  -7   48.07    3.44
   3 -11   7   55.06    3.71
  -3  11  -8   26.66    3.14
   3 -11   8   31.92    3.55
   3 -10  -5  526.04   14.11
   3 -10  -5  523.78   13.95
   3 -10  -4  702.27   18.42
   3 -10  -4  703.03   18.49
   3 -10  -3 1582.29   40.58
   3 -10  -3 1637.13   41.98
   3 -10  -2 1333.07   34.41
   3 -10  -2 1320.22   34.04
   3 -10  -1  855.81   22.50
   3 -10  -1  859.60   22.54
  -3  10   0 1133.02   29.50
   3 -10   0 1152.68   29.84
   3 -10   0 1157.98   30.07
  -3  10  -1  855.44   22.43
   3 -10   1  890.23   23.41
   3 -10   1  928.05   24.24
  -3  10  -2 1606.12   41.26
   3 -10   2 1652.63   42.54
   3 -10   2 1715.03   43.98
  -3  10  -3  610.76   16.22
   3 -10   3  631.93   16.90
   3 -10   3  681.10   18.11
  -3  10  -4  665.97   17.62
   3 -10   4  681.10   18.11
   3 -10   4  693.95   18.34
  -3  10  -5  272.36    7.98
   3 -10   5  294.52    8.55
  -3  10  -6  624.75   16.60
   3 -10   6  671.64   17.81
  -3  10  -7 1040.36   26.96
   3 -10   7 1142.09   29.57
  -3  10  -8  563.86   15.01
   3 -10   8  650.84   17.32
  -3  10  -9  982.13   25.53
   3 -10   9 1100.12   28.51
   3  -9  -7   -1.25    2.95
   3  -9  -7   -1.25    2.87
   3  -9  -6   44.74    3.14
   3  -9  -6   42.09    3.37
   3  -9  -5    1.74    2.99
   3  -9  -5    2.19    3.06
   3  -9  -4   19.17    2.87
   3  -9  -4   19.36    2.80
   3  -9  -3   36.04    3.40
   3  -9  -3   27.64    2.95
   3  -9  -2    2.34    2.76
   3  -9  -2    3.59    3.03
   3  -9  -1   75.64    3.63
   3  -9  -1   77.60    4.12
  -3   9   0   -2.38    2.65
   3  -9   0   -1.66    2.95
   3  -9   0    0.34    2.80
  -3   9  -1  144.88    4.99
   3  -9   1  165.83    5.67
   3  -9   1  160.46    5.45
  -3   9  -2  405.78   11.23
   3  -9   2  439.44   12.03
   3  -9   2  413.73   11.53
  -3   9  -3   17.59    2.76
   3  -9   3   21.25    2.87
   3  -9   3   21.75    3.03
  -3   9  -4   28.36    3.18
   3  -9   4   32.83    2.95
  -3   9  -5    0.57    2.80
   3  -9   5    1.44    3.10
  -3   9  -6   14.11    2.80
   3  -9   6    6.77    2.87
  -3   9  -7  122.23    4.58
   3  -9   7  141.02    5.11
  -3   9  -8   48.41    3.44
   3  -9   8   50.26    3.63
  -3   9  -9   -2.95    2.99
   3  -9   9    2.65    3.48
  -3   9 -10   85.96    4.05
   3  -9  10  103.20    4.77
  -3   8   8  787.36   20.72
   3  -8  -8  740.85   19.44
   3  -8  -8  762.40   20.04
  -3   8   7  836.91   21.90
   3  -8  -7  782.45   20.50
   3  -8  -7  774.51   20.27
  -3   8   6  646.30   17.17
   3  -8  -6  553.65   14.82
   3  -8  -6  559.70   14.94
   3  -8  -5  541.55   14.56
   3  -8  -5  502.98   13.61
   3  -8  -4 1459.39   37.67
   3  -8  -4 1491.53   38.54
   3  -8  -3  523.02   14.18
   3  -8  -3  549.49   14.71
   3  -8  -2  457.97   12.71
   3  -8  -2  439.82   11.99
   3  -8  -1  394.06   11.04
   3  -8  -1  395.95   11.00
  -3   8   0  392.55   10.85
   3  -8   0  399.73   11.19
   3  -8   0  419.02   11.53
  -3   8  -1 2237.67   57.26
   3  -8   1 2387.05   61.11
   3  -8   1 2376.46   60.74
  -3   8  -2   39.63    2.95
   3  -8   2   47.39    3.10
   3  -8   2   38.73    3.03
  -3   8  -3   82.25    3.90
   3  -8   3   88.42    3.90
  -3   8  -4    6.16    2.91
   3  -8   4    7.64    2.99
  -3   8  -5   10.97    2.76
   3  -8   5    3.63    2.72
  -3   8  -6  208.22    6.47
   3  -8   6  217.34    6.73
  -3   8  -7   33.62    3.48
   3  -8   7   32.98    3.25
  -3   8  -8   95.49    4.12
   3  -8   8   95.57    4.31
  -3   8  -9   98.25    4.12
   3  -8   9  103.62    4.69
  -3   8 -10  156.11    5.48
   3  -8  10  170.48    6.01
  -3   8 -11  299.86    8.58
   3  -8  11  311.09    9.11
  -3   7   9   64.29    4.20
   3  -7  -9   58.35    3.86
   3  -7  -9   54.68    3.37
  -3   7   8   14.79    3.10
   3  -7  -8   11.99    3.06
   3  -7  -8   17.24    3.29
  -3   7   7    7.11    3.03
   3  -7  -7   11.50    2.84
   3  -7  -7    9.83    2.91
  -3   7   6   43.04    3.33
   3  -7  -6   42.24    3.14
   3  -7  -6   43.76    3.29
   3  -7  -5    6.24    2.95
   3  -7  -4   25.53    3.29
   3  -7  -4   19.21    2.65
   3  -7  -3   19.93    2.69
   3  -7  -3   19.29    3.06
   3  -7  -2   41.71    2.91
   3  -7  -2   39.75    3.29
   3  -7  -1   15.35    2.72
   3  -7  -1   11.61    2.65
  -3   7   0  114.02    4.20
   3  -7   0  125.03    4.46
   3  -7   0  122.19    4.58
  -3   7  -1  479.53   12.97
   3  -7   1  519.62   14.07
   3  -7   1  506.76   13.61
  -3   7  -2   70.45    3.33
   3  -7   2   77.00    3.71
   3  -7   2   73.10    3.37
  -3   7  -3   49.13    3.06
   3  -7   3   62.13    3.44
  -3   7  -4   42.51    3.14
   3  -7   4   46.89    3.18
  -3   7  -5   28.89    2.99
   3  -7   5   34.49    2.99
  -3   7  -6  119.77    4.50
   3  -7   6  133.42    4.80
  -3   7  -7   13.01    3.06
   3  -7   7   14.33    2.84
  -3   7  -8  158.08    5.56
   3  -7   8  171.50    5.86
  -3   7  -9   59.75    3.59
   3  -7   9   76.88    3.97
  -3   7 -10   31.84    3.21
   3  -7  10   39.52    3.63
  -3   7 -11   22.58    3.44
   3  -7  11   21.03    3.52
  -3   7 -12   15.05    3.78
   3  -7  12   10.89    3.82
  -3   6  10  490.87   13.35
   3  -6 -10  470.07   12.74
   3  -6 -10  447.38   12.14
  -3   6   9  558.57   15.09
   3  -6  -9  538.52   14.56
   3  -6  -9  539.66   14.45
  -3   6   8  207.77    6.73
   3  -6  -8  197.75    6.47
   3  -6  -8  193.48    6.28
  -3   6   7  942.04   24.62
   3  -6  -7  903.46   23.56
   3  -6  -7  878.88   23.03
  -3   6   5  834.26   21.97
   3  -6  -5  764.67   20.19
   3  -6  -5  760.89   20.04
  -3   6   4  184.06    5.94
   3  -6  -4  174.79    5.63
   3  -6  -4  167.00    5.60
   3  -6  -3   11.12    2.50
   3  -6  -3   12.06    2.69
   3  -6  -2  473.10   12.86
   3  -6  -2  447.38   12.29
  -3   6   1  420.53   11.46
   3  -6  -1  437.93   12.03
   3  -6  -1  424.69   11.61
  -3   6   0 1485.10   38.23
   3  -6   0 1658.68   42.62
   3  -6   0 1687.43   43.41
  -3   6  -1 1657.17   42.54
   3  -6   1 1835.29   47.08
   3  -6   1 1873.11   48.14
  -3   6  -2 3245.14   82.67
   3  -6   2 3673.99   93.64
  -3   6  -3 2395.37   61.19
   3  -6   3 2518.66   64.37
  -3   6  -4 5245.31  133.27
   3  -6   4 5392.80  137.01
  -3   6  -5 5612.15  142.46
   3  -6   5 6141.59  155.96
  -3   6  -6 4829.32  122.68
   3  -6   6 5339.86  135.80
  -3   6  -7 3272.37   83.35
   3  -6   7 3470.91   88.42
  -3   6  -8 1408.71   36.30
   3  -6   8 1498.34   38.61
  -3   6  -9 1146.63   29.69
   3  -6   9 1228.32   31.77
  -3   6 -10  599.41   16.00
   3  -6  10  606.22   16.22
  -3   6 -11 1010.87   26.17
   3  -6  11 1107.30   28.74
  -3   6 -12  308.33    8.92
   3  -6  12  320.28    9.30
  -3   5  11   59.79    4.12
   3  -5 -11   60.39    3.59
  -3   5  10   38.01    3.71
   3  -5 -10   35.47    3.21
  -3   5   9   36.19    3.33
   3  -5  -9   32.30    3.18
  -3   5   8  154.11    5.37
   3  -5  -8  148.62    5.07
   3  -5  -8  152.06    5.33
  -3   5   7   -2.69    2.84
  -3   5   6    0.42    2.72
   3  -5  -6    4.01    2.72
   3  -5  -6    3.10    2.69
  -3   5   5    2.08    2.61
   3  -5  -5    7.19    2.65
   3  -5  -5   10.06    2.61
  -3   5   4    1.51    2.50
   3  -5  -4   -1.70    2.53
   3  -5  -4    2.27    2.46
  -3   5   3    5.26    2.61
   3  -5  -3    1.32    2.16
   3  -5  -3    5.98    2.72
   3  -5  -2   21.40    2.27
   3  -5  -2   20.50    2.57
  -3   5   1   36.04    2.38
   3  -5  -1   41.03    2.69
   3  -5  -1   38.65    2.84
  -3   5   0   94.13    3.59
   3  -5   0  100.90    3.63
   3  -5   0  105.89    3.97
  -3   5  -1    1.82    1.89
   3  -5   1    3.93    1.89
   3  -5   1    5.45    2.16
  -3   5  -2   -0.45    1.85
   3  -5   2    4.01    2.50
  -3   5  -3   10.93    2.08
   3  -5   3   13.24    2.57
  -3   5  -4   35.85    2.61
   3  -5   4   40.50    2.99
  -3   5  -5   80.32    3.55
   3  -5   5   82.56    3.63
  -3   5  -6  301.22    8.58
   3  -5   6  320.28    9.23
  -3   5  -7  134.40    4.88
   3  -5   7  147.45    5.37
  -3   5  -8   49.65    3.25
   3  -5   8   52.26    3.52
  -3   5  -9  158.68    5.48
   3  -5   9  164.39    5.63
  -3   5 -10  174.30    5.90
   3  -5  10  196.84    6.43
  -3   5 -11  109.10    4.69
   3  -5  11  111.79    4.65
  -3   5 -12   62.21    4.24
   3  -5  12   67.09    4.16
  -3   4  12  176.91    5.98
   3  -4 -12  184.78    5.94
  -3   4  11  146.54    5.29
   3  -4 -11  139.93    5.07
  -3   4  10   77.72    3.97
   3  -4 -10   75.86    3.86
  -3   4   9   57.90    3.90
   3  -4  -9   51.09    3.52
  -3   4   8 1143.61   29.76
  -3   4   7 1316.43   34.07
   3  -4  -7 1205.63   31.28
  -3   4   6 2055.01   52.68
   3  -4  -6 1980.89   50.75
  -3   4   5 1599.31   41.15
  -3   4   4  789.63   20.72
   3  -4  -4  730.26   19.17
   3  -4  -4  754.08   19.89
  -3   4   3 6058.40  153.80
   3  -4  -3 5752.07  145.98
   3  -4  -3 5668.87  143.97
  -3   4   2 3011.05   76.73
   3  -4  -2 2873.77   73.33
   3  -4  -2 3018.99   76.88
  -3   4   1 1314.54   33.85
   3  -4  -1 1414.76   36.42
   3  -4  -1 1369.00   35.21
  -3   4   0 1817.90   46.52
   3  -4   0 1971.44   50.37
   3  -4   0 1896.18   48.60
  -3   4  -1 2323.14   59.30
   3  -4   1 2529.25   64.55
  -3   4  -2  162.50    4.95
   3  -4   2  184.21    5.71
  -3   4  -3  712.11   18.64
   3  -4   3  762.03   20.01
  -3   4  -4 1610.28   41.30
   3  -4   4 1749.83   44.97
  -3   4  -5 2098.50   53.66
   3  -4   5 2251.29   57.60
  -3   4  -6 2455.50   62.70
   3  -4   6 2556.10   65.31
  -3   4  -7  100.25    4.01
   3  -4   7  102.79    4.20
  -3   4  -8 1865.55   47.80
   3  -4   8 1990.35   51.05
  -3   4  -9 1965.39   50.34
   3  -4   9 2008.88   51.47
  -3   4 -10 1437.07   36.95
   3  -4  10 1471.86   37.89
  -3   4 -11  709.84   18.72
   3  -4  11  727.99   19.17
  -3   4 -12  149.15    5.75
   3  -4  12  149.76    5.45
  -3   3  13   25.15    3.44
   3  -3 -13   24.20    3.25
  -3   3  12   99.35    4.46
   3  -3 -12   92.24    4.24
  -3   3  11   23.56    3.63
   3  -3 -11   18.87    3.21
  -3   3  10   -2.16    2.99
   3  -3 -10    1.17    3.03
  -3   3   9  121.74    4.99
   3  -3  -9  124.46    4.95
  -3   3   8    1.44    2.80
   3  -3  -8    5.48    2.91
  -3   3   7   16.56    3.10
   3  -3  -7   19.59    2.87
  -3   3   6    0.45    2.69
   3  -3  -6    0.00    2.34
  -3   3   5   91.86    3.71
   3  -3  -5   97.46    3.82
  -3   3   4   -1.17    2.08
   3  -3  -4   -2.72    1.89
  -3   3   3   45.61    2.69
   3  -3  -3   43.34    2.38
   3  -3  -3   42.92    2.76
  -3   3   2    4.69    1.89
   3  -3  -2    3.71    1.74
   3  -3  -2    4.08    1.97
   3  -3  -1   20.04    1.93
   3  -3  -1   23.22    1.89
  -3   3   0   51.58    2.38
   3  -3   0   58.43    2.50
   3  -3   0   60.43    2.76
  -3   3  -1   -1.97    1.55
   3  -3   1    0.72    1.85
  -3   3  -2   -0.15    1.51
   3  -3   2    2.34    1.82
  -3   3  -3    6.13    1.70
   3  -3   3    5.60    1.89
  -3   3  -4   38.38    2.34
   3  -3   4   39.78    2.50
  -3   3  -5   85.69    3.44
   3  -3   5   87.74    3.63
  -3   3  -6   74.95    3.37
   3  -3   6   77.03    3.48
  -3   3  -7  162.16    5.33
   3  -3   7  164.81    5.63
  -3   3  -8   49.69    3.14
   3  -3   8   47.88    3.33
  -3   3  -9  289.80    8.32
   3  -3   9  301.14    8.85
  -3   3 -10   -1.40    2.87
   3  -3  10   -0.15    3.06
  -3   3 -11   10.02    3.21
   3  -3  11    8.66    3.21
  -3   3 -12   47.08    3.90
   3  -3  12   54.38    3.74
  -3   2  13 1030.91   26.81
   3  -2 -13 1047.17   27.08
  -3   2  12  437.17   12.14
   3  -2 -12  435.66   11.87
  -3   2  11  606.97   16.30
   3  -2 -11  590.33   15.85
  -3   2  10  249.14    7.56
   3  -2 -10  258.94    7.90
  -3   2   9  956.41   25.04
   3  -2  -9  964.35   25.30
  -3   2   8  937.50   24.54
   3  -2  -8  945.82   24.73
  -3   2   7 1607.63   41.41
   3  -2  -7 1636.75   42.09
  -3   2   6  803.25   21.03
   3  -2  -6  802.11   21.03
  -3   2   5  821.02   21.44
   3  -2  -5  839.17   21.90
  -3   2  -4 3095.00   78.74
   3  -2   4 3244.00   82.63
  -3   2  -5 1801.64   46.06
   3  -2   5 1839.07   47.12
  -3   2  -6   42.39    2.57
   3  -2   6   42.20    2.91
  -3   2  -7  503.35   13.46
   3  -2   7  541.55   14.60
  -3   2  -8  516.59   13.84
   3  -2   8  531.72   14.30
  -3   2  -9  524.15   14.11
   3  -2   9  559.70   15.09
  -3   2 -10  360.52   10.06
   3  -2  10  356.70   10.14
  -3   2 -11   42.39    3.67
   3  -2  11   42.05    3.33
  -3   2 -12  231.52    7.30
   3  -2  12  227.44    7.00
  -3   1  14   10.10    3.71
   3  -1 -14    9.61    3.14
  -3   1  13    9.91    3.18
   3  -1 -13   12.56    3.29
  -3   1  12  139.70    5.11
   3  -1 -12  124.72    4.99
  -3   1  11   45.49    3.78
   3  -1 -11   41.90    3.59
  -3   1  10   13.88    2.99
   3  -1 -10    9.76    3.10
  -3   1   9   45.68    3.18
   3  -1  -9   48.75    3.29
  -3   1   8  225.28    6.85
   3  -1  -8  223.09    6.77
  -3   1   7   24.69    2.61
   3  -1  -7   26.70    2.57
  -3   1   6   24.96    2.38
   3  -1  -6   23.79    2.42
  -3   1   5  269.87    7.71
   3  -1  -5  263.32    7.49
  -3   1   4  322.13    8.85
   3  -1  -4  311.05    8.51
  -3   1   3  765.05   19.85
   3  -1  -3  742.36   19.21
  -3   1   2 1156.47   29.65
   3  -1  -2 1080.07   27.68
  -3   1   1   13.31    1.25
   3  -1  -1   14.30    1.25
   3  -1  -1   12.18    1.32
  -3   1   0  461.38   11.95
   3  -1   0  473.48   12.29
   3  -1   0  485.96   12.63
  -3   1  -1   67.13    2.16
   3  -1   1   80.63    2.57
  -3   1  -2   15.73    1.25
   3  -1   2   19.51    1.55
  -3   1  -3  303.71    8.13
   3  -1   3  323.57    8.74
  -3   1  -4   36.23    2.00
   3  -1   4   34.98    2.12
  -3   1  -5   42.81    2.23
   3  -1   5   45.72    2.57
  -3   1  -6   17.24    2.12
   3  -1   6   14.41    2.42
  -3   1  -7   28.70    2.72
   3  -1   7   28.29    2.76
  -3   1  -8  148.96    4.95
   3  -1   8  163.11    5.48
  -3   1  -9   31.84    2.91
   3  -1   9   32.60    3.06
  -3   1 -10   64.21    3.74
   3  -1  10   60.89    3.67
  -3   1 -11   11.16    3.40
   3  -1  11   11.53    3.33
  -3   1 -12   46.82    3.78
   3  -1  12   42.58    3.67
  -3   0  14  361.69   10.36
   3   0 -14  381.58   10.63
  -3   0  13  133.91    5.29
   3   0 -13  146.47    5.37
  -3   0  12  866.78   22.69
   3   0 -12  868.67   22.88
  -3   0  11 1185.96   30.82
   3   0 -11 1157.98   30.22
  -3   0  10 2403.69   61.53
   3   0 -10 2509.20   64.25
  -3   0   9 3509.10   89.36
   3   0  -9 3461.83   88.19
  -3   0   8 5865.53  148.96
   3   0  -8 6050.83  153.62
  -3   0   7 3189.92   81.27
   3   0  -7 3182.36   81.08
  -3   0   6 1345.93   34.68
   3   0  -6 1443.88   37.14
  -3   0   5 1469.97   37.78
   3   0  -5 1467.70   37.67
  -3   0   4 3163.45   80.51
   3   0  -4 3115.80   79.23
  -3   0   3 1212.06   31.09
   3   0  -3 1189.37   30.48
  -3   0   2  856.95   22.01
   3   0  -2  825.94   21.22
  -3   0   1   13.24    0.91
   3   0  -1   11.35    0.91
   3   0  -1   12.03    0.95
   3   0   0   13.88    0.64
   3   0   0   12.56    0.68
  -3   0  -1 1736.21   45.19
   3   0   1 1826.97   47.54
  -3   0  -2 2900.24   74.12
  -3   0  -3 1463.17   37.40
   3   0   3 1449.17   37.14
  -3   0  -4 1085.37   27.87
   3   0   4 1076.29   27.72
  -3   0  -5  961.70   24.81
   3   0   5  981.37   25.38
  -3   0  -6  753.33   19.67
   3   0   6  754.84   19.74
  -3   0  -7  341.12    9.45
   3   0   7  343.99    9.61
  -3   0  -8 1433.29   36.87
   3   0   8 1440.10   37.10
  -3   0  -9  502.60   13.50
   3   0   9  531.72   14.30
  -3   0 -10  291.88    8.55
   3   0  10  300.88    8.62
  -3   0 -11  300.16    8.81
   3   0  11  303.52    8.70
  -3  -1  14    6.58    3.55
   3   1 -14    5.82    3.71
  -3  -1  13   13.77    3.06
   3   1 -13    6.81    3.86
  -3  -1  12   13.31    3.03
   3   1 -12    1.63    3.52
  -3  -1  11   57.52    3.90
   3   1 -11   53.44    3.71
  -3  -1  10   55.71    3.63
   3   1 -10   56.35    3.82
  -3  -1   9  141.17    4.99
   3   1  -9  134.78    4.80
  -3  -1   8   14.18    2.80
   3   1  -8   18.04    2.76
  -3  -1   7    3.29    2.08
   3   1  -7    3.86    2.31
  -3  -1   6  387.25   10.63
   3   1  -6  382.34   10.40
  -3  -1   5  691.69   18.15
   3   1  -5  683.37   17.85
  -3  -1   4  427.72   11.42
   3   1  -4  428.10   11.31
  -3  -1   3 1325.51   33.92
   3   1  -3 1409.84   36.04
  -3  -1   2  445.11   11.57
   3   1  -2  477.64   12.37
  -3  -1  -2  259.85    6.85
   3   1   2  259.96    6.92
  -3  -1  -3    2.69    1.17
   3   1   3   -0.08    1.36
  -3  -1  -4  235.83    6.47
   3   1   4  236.59    6.58
  -3  -1  -5  126.20    4.05
   3   1   5  126.08    4.08
  -3  -1  -6   52.79    2.72
   3   1   6   46.40    2.72
  -3  -1  -7    1.36    2.27
   3   1   7    1.17    2.38
  -3  -1  -8   22.58    2.91
   3   1   8   21.71    2.91
  -3  -1  -9    1.70    3.18
   3   1   9    7.45    2.76
  -3  -1 -10   -0.98    3.44
   3   1  10    0.26    2.80
  -3  -1 -11    0.79    3.71
   3   1  11    3.10    3.29
  -3  -2  14  483.31   13.12
   3   2 -14  482.55   13.35
  -3  -2  13  530.58   14.30
   3   2 -13  573.69   15.69
  -3  -2  12  185.38    6.28
   3   2 -12  194.69    6.54
  -3  -2  11  916.32   24.09
   3   2 -11  979.10   25.68
  -3  -2  10  857.71   22.58
   3   2 -10  872.83   22.96
  -3  -2   9 1763.44   45.31
   3   2  -9 1750.20   44.97
  -3  -2   8  666.73   17.74
   3   2  -8  633.82   16.79
  -3  -2   7  381.58   10.59
   3   2  -7  391.79   10.74
  -3  -2   6 2126.87   54.42
   3   2  -6 2241.83   57.22
  -3  -2   5 1666.25   42.73
   3   2  -5 1806.55   46.14
  -3  -2   4 2790.19   71.06
   3   2  -4 2918.77   74.24
  -3  -2   3  188.67    5.26
   3   2  -3  191.06    5.33
  -3  -2   2  120.79    3.48
   3   2  -2  118.03    3.40
  -3  -2   1  278.49    7.34
   3   2  -1  272.97    7.15
  -3  -2   0  128.43    3.52
  -3  -2   0  117.88    3.25
  -3  -2  -1 1122.05   28.97
  -3  -2  -1 1098.60   28.36
  -3  -2  -2  235.42    6.32
  -3  -2  -2  236.47    6.32
   3   2   2  239.05    6.47
  -3  -2  -3  998.01   25.64
   3   2   3 1002.17   25.83
  -3  -2  -4 1506.28   38.54
   3   2   4 1491.15   38.23
  -3  -2  -5 2398.02   61.15
   3   2   5 2331.46   59.53
  -3  -2  -6 1334.96   34.30
   3   2   6 1321.73   34.04
  -3  -2  -7 4386.85  111.52
   3   2   7 4175.07  106.23
  -3  -2  -8 1622.76   41.64
   3   2   8 1536.53   39.48
  -3  -2  -9  764.30   20.16
   3   2   9  762.78   20.01
  -3  -2 -10  370.73   10.48
   3   2  10  363.05   10.14
  -3  -2 -11   21.06    4.20
   3   2  11   25.83    3.44
  -3  -3  14   37.06    3.55
   3   3 -14   43.76    4.27
  -3  -3  13   49.96    3.63
   3   3 -13   52.15    4.20
  -3  -3  12  137.92    5.18
   3   3 -12  146.81    5.52
  -3  -3  11  120.22    4.99
   3   3 -11  122.95    4.88
  -3  -3  10  101.09    4.39
   3   3 -10   94.54    4.20
  -3  -3   9   60.24    3.52
   3   3  -9   54.84    3.52
  -3  -3   8  156.53    5.37
   3   3  -8  154.41    5.11
  -3  -3   7    3.52    2.34
   3   3  -7    1.89    2.12
  -3  -3   6  328.45    9.15
   3   3  -6  344.67    9.49
  -3  -3   5  258.26    7.37
   3   3  -5  263.89    7.37
  -3  -3   4   21.40    2.08
   3   3  -4   21.56    1.97
  -3  -3   3    9.64    1.66
   3   3  -3    8.92    1.55
  -3  -3   2  276.90    7.41
   3   3  -2  284.54    7.60
  -3  -3   1   14.07    1.25
  -3  -3   1   14.26    1.06
   3   3  -1   14.37    1.21
  -3  -3   0   27.91    1.32
  -3  -3   0   26.85    1.40
  -3  -3  -1   40.20    1.70
  -3  -3  -1   37.40    1.59
  -3  -3  -2    0.26    1.29
  -3  -3  -2   -0.19    1.25
  -3  -3  -3    1.66    1.51
  -3  -3  -3    1.10    1.51
   3   3   3    0.04    1.66
  -3  -3  -4    1.93    1.74
  -3  -3  -4    3.74    1.82
   3   3   4   -2.00    2.00
  -3  -3  -5    3.37    2.16
   3   3   5    6.39    2.38
  -3  -3  -6   88.83    3.55
   3   3   6   87.74    3.63
  -3  -3  -7   32.22    3.14
   3   3   7   32.49    2.99
  -3  -3  -8   48.33    3.55
   3   3   8   40.05    3.33
  -3  -3  -9   10.40    3.44
   3   3   9   10.06    2.80
  -3  -3 -10   35.93    3.59
   3   3  10   33.20    3.55
  -3  -4  14  171.13    5.90
   3   4 -14  174.68    6.47
  -3  -4  13   38.08    3.48
   3   4 -13   36.91    3.82
  -3  -4  12  915.19   23.94
   3   4 -12  965.49   25.41
  -3  -4  11  625.50   16.79
   3   4 -11  637.98   17.17
  -3  -4  10  385.36   10.85
   3   4 -10  391.79   11.00
  -3  -4   9  109.71    4.39
   3   4  -9  107.02    4.50
  -3  -4   8    3.93    2.65
   3   4  -8    7.60    2.42
  -3  -4   7 1714.65   44.02
   3   4  -7 1638.64   42.05
  -3  -4   6 1736.97   44.55
   3   4  -6 1717.68   44.02
  -3  -4   5 1724.11   44.17
   3   4  -5 1638.26   41.98
  -3  -4   4 4795.28  121.74
   3   4  -4 4889.83  124.19
  -3  -4   2 2827.63   71.97
   3   4  -2 2685.43   68.37
  -3  -4  -1 4152.38  105.66
  -3  -4  -1 4182.64  106.46
  -3  -4  -2 3233.79   82.29
  -3  -4  -2 3186.90   81.16
  -3  -4  -3  305.60    8.28
  -3  -4  -3  298.87    8.09
   3   4   3  322.96    8.81
  -3  -4  -4 1450.31   37.17
  -3  -4  -4 1403.04   35.96
   3   4   4 1468.46   37.70
  -3  -4  -5 1075.54   27.76
  -3  -4  -5 1025.62   26.47
   3   4   5 1099.74   28.40
  -3  -4  -6 1310.76   33.77
  -3  -4  -6 1379.59   35.47
   3   4   6 1414.76   36.42
  -3  -4  -7  791.15   20.76
  -3  -4  -7  829.34   21.75
   3   4   7  823.67   21.59
  -3  -4  -8  458.35   12.56
  -3  -4  -8  442.47   12.22
   3   4   8  447.76   12.22
  -3  -4  -9  715.13   18.95
  -3  -4  -9  731.77   19.32
   3   4   9  703.79   18.53
  -3  -5  14    0.76    3.37
   3   5 -14    0.53    3.71
  -3  -5  13   47.16    3.74
   3   5 -13   47.61    4.35
  -3  -5  12   20.91    3.29
   3   5 -12   12.71    3.44
  -3  -5  11    3.10    3.21
   3   5 -11    2.80    3.63
  -3  -5  10   -3.78    2.91
   3   5 -10    1.10    3.40
  -3  -5   9   11.65    3.06
   3   5  -9    7.41    3.21
  -3  -5   8   -0.72    2.61
   3   5  -8    1.10    2.50
  -3  -5   7   -0.08    2.53
   3   5  -7    2.84    2.61
  -3  -5   6   23.18    2.53
   3   5  -6   20.65    2.53
  -3  -5   5   11.84    2.23
   3   5  -5    9.64    2.08
  -3  -5   4   18.27    2.12
   3   5  -4   13.35    1.97
  -3  -5   3    5.03    1.82
   3   5  -3    6.88    1.78
  -3  -5   2   49.28    2.34
   3   5  -2   47.35    2.31
  -3  -5   1   24.58    1.85
  -3  -5   1   22.65    1.78
   3   5  -1   24.66    1.93
  -3  -5   0   34.26    2.00
  -3  -5   0   36.08    2.08
  -3  -5  -1   80.25    2.91
  -3  -5  -1   74.01    2.80
  -3  -5  -2  237.00    6.66
  -3  -5  -2  233.71    6.58
  -3  -5  -3  257.73    7.22
  -3  -5  -3  252.24    7.11
  -3  -5  -4    5.18    2.27
  -3  -5  -4    4.46    2.42
  -3  -5  -5  283.07    8.13
  -3  -5  -5  298.87    8.43
   3   5   5  286.02    8.13
  -3  -5  -6    7.68    3.10
  -3  -5  -6   -2.23    2.69
   3   5   6    7.94    2.87
  -3  -5  -7    1.44    3.44
  -3  -5  -7    0.45    3.03
   3   5   7    2.80    3.06
  -3  -5  -8   48.03    3.82
  -3  -5  -8   37.52    3.33
   3   5   8   38.35    3.18
  -3  -6  14   23.64    3.55
   3   6 -14   35.13    4.05
  -3  -6  13  731.02   19.29
   3   6 -13  698.87   18.72
  -3  -6  12  717.78   19.06
   3   6 -12  674.29   18.08
  -3  -6  11  697.36   18.53
   3   6 -11  701.14   18.76
  -3  -6  10  478.39   13.20
   3   6 -10  493.14   13.58
  -3  -6   9  166.36    5.60
   3   6  -9  158.12    5.52
  -3  -6   8 1310.76   33.85
   3   6  -8 1277.86   33.05
  -3  -6   7  526.04   14.14
   3   6  -7  544.20   14.64
  -3  -6   6  478.77   12.90
   3   6  -6  479.53   12.97
  -3  -6   5  391.04   10.70
   3   6  -5  397.46   10.89
  -3  -6   4 1042.26   26.96
   3   6  -4  999.14   25.94
  -3  -6   3   83.84    3.29
   3   6  -3   69.62    3.14
  -3  -6   2 1613.68   41.33
  -3  -6   2 1638.26   41.98
   3   6  -2 1581.54   40.54
  -3  -6   1 3388.84   86.26
  -3  -6   1 3287.49   83.65
   3   6  -1 3208.08   81.69
  -3  -6   0 2808.34   71.55
  -3  -6   0 2693.38   68.64
  -3  -6  -1 3480.36   88.53
  -3  -6  -1 3522.72   89.70
  -3  -6  -2  548.73   14.48
  -3  -6  -2  537.01   14.22
  -3  -6  -3 2629.09   67.05
  -3  -6  -3 2565.93   65.42
  -3  -6  -4 1890.13   48.41
  -3  -6  -4 1828.11   46.82
  -3  -6  -5  960.19   25.04
  -3  -6  -5  988.18   25.72
  -3  -6  -6  412.21   11.50
  -3  -6  -6  408.81   11.31
  -3  -6  -7   12.97    3.55
  -3  -6  -7   17.06    3.71
   3   6   7    8.96    2.91
  -3  -6  -8  162.69    6.16
  -3  -6  -8  167.00    6.09
   3   6   8  154.49    5.67
  -3  -7  14   25.07    3.67
   3   7 -14   34.87    4.01
  -3  -7  13  133.00    5.18
   3   7 -13  124.08    5.33
  -3  -7  12  127.26    5.11
   3   7 -12  121.17    5.22
  -3  -7  11  165.72    5.75
   3   7 -11  169.95    6.35
  -3  -7  10   94.92    4.31
   3   7 -10   88.87    4.69
  -3  -7   9   85.73    4.24
   3   7  -9   92.31    4.54
  -3  -7   8  138.60    4.99
   3   7  -8  134.63    4.99
  -3  -7   7  221.88    6.73
   3   7  -7  215.11    6.73
  -3  -7   6    0.26    2.57
   3   7  -6    1.32    2.46
  -3  -7   5   -0.95    2.27
   3   7  -5    0.34    2.50
  -3  -7   4   22.92    2.42
   3   7  -4   15.85    2.46
  -3  -7   3   21.03    2.65
   3   7  -3   24.73    2.65
  -3  -7   2   -0.15    2.04
  -3  -7   2    0.42    2.12
   3   7  -2    2.84    2.16
  -3  -7   1   22.50    2.27
  -3  -7   1   26.62    2.57
   3   7  -1   20.91    2.53
  -3  -7   0   32.37    2.69
  -3  -7   0   25.56    2.46
  -3  -7  -1    3.78    2.46
  -3  -7  -1    5.22    2.34
  -3  -7  -2  137.92    4.65
  -3  -7  -2  132.55    4.61
  -3  -7  -3    6.35    2.84
  -3  -7  -3    0.98    2.80
  -3  -7  -4   52.87    3.59
  -3  -7  -4   56.05    3.59
  -3  -7  -5    7.30    3.10
  -3  -7  -5    2.61    3.33
  -3  -7  -6    3.90    3.48
  -3  -7  -6   -3.59    3.40
  -3  -8  13  243.89    7.53
   3   8 -13  239.58    8.06
  -3  -8  12  963.22   25.07
   3   8 -12  998.01   26.09
  -3  -8  11  741.98   19.59
   3   8 -11  768.08   20.38
  -3  -8  10 1191.26   30.90
   3   8 -10 1311.52   34.04
  -3  -8   9 2530.38   64.71
   3   8  -9 2455.13   62.89
  -3  -8   8 3411.91   86.94
   3   8  -8 3307.16   84.33
  -3  -8   7 5820.14  147.72
   3   8  -7 5744.51  145.94
  -3  -8   6 2734.98   69.77
   3   8  -6 2511.85   64.14
  -3  -8   5 3189.17   81.23
   3   8  -5 3093.87   78.81
  -3  -8   4 1687.43   43.26
   3   8  -4 1584.56   40.69
  -3  -8   3 2027.79   51.89
  -3  -8   3 1933.62   49.50
   3   8  -3 1831.89   46.93
  -3  -8   2 1429.89   36.76
  -3  -8   2 1377.32   35.44
   3   8  -2 1317.95   33.96
  -3  -8   1  398.98   10.89
  -3  -8   1  388.39   10.63
   3   8  -1  384.98   10.59
  -3  -8   0  278.53    7.98
  -3  -8   0  274.06    7.79
  -3  -8  -1   79.76    3.74
  -3  -8  -1   73.71    3.55
  -3  -8  -2  226.83    7.00
  -3  -8  -2  230.95    6.96
  -3  -8  -3  176.84    6.01
  -3  -8  -3  167.53    5.75
  -3  -8  -4  808.92   21.22
  -3  -8  -4  793.42   20.80
  -3  -8  -5  267.90    8.13
  -3  -8  -5  274.97    8.24
  -3  -9  13   16.87    3.93
   3   9 -13   18.30    4.08
  -3  -9  12    4.88    3.55
   3   9 -12    3.18    4.20
  -3  -9  11   -4.58    3.48
   3   9 -11    4.01    3.67
  -3  -9  10   14.30    3.44
   3   9 -10   19.74    3.63
  -3  -9   9   53.06    3.67
   3   9  -9   58.20    3.97
  -3  -9   8  248.08    7.53
   3   9  -8  261.06    8.13
  -3  -9   7  104.11    4.39
   3   9  -7  110.39    4.65
  -3  -9   6   40.39    3.10
   3   9  -6   46.89    3.52
  -3  -9   5  209.74    6.50
   3   9  -5  217.38    6.81
  -3  -9   4   15.81    2.91
   3   9  -4   14.60    2.91
  -3  -9   3   47.01    3.25
  -3  -9   3   53.89    3.14
   3   9  -3   50.30    3.55
  -3  -9   2    6.77    2.65
  -3  -9   2    2.65    2.72
   3   9  -2    1.70    2.87
  -3  -9   1    7.26    2.80
  -3  -9   1    9.15    2.84
  -3  -9   0   94.88    4.05
  -3  -9   0   85.17    3.86
  -3  -9  -1   16.19    3.18
  -3  -9  -1   19.67    3.29
  -3  -9  -2    9.15    3.03
  -3  -9  -2    5.26    3.25
  -3  -9  -3   19.14    3.63
  -3  -9  -3   14.26    3.59
  -3  -9  -4   11.31    3.82
  -3  -9  -4   14.03    3.71
  -3 -10  12  109.03    5.33
  -3 -10  11   20.38    3.74
   3  10 -11   14.56    4.27
  -3 -10  10   43.72    3.63
   3  10 -10   39.03    4.05
  -3 -10   9   32.90    3.37
   3  10  -9   28.29    3.78
  -3 -10   8  389.14   10.89
   3  10  -8  391.79   11.19
  -3 -10   7   68.87    3.74
   3  10  -7   63.19    3.82
  -3 -10   6   69.92    3.74
   3  10  -6   66.03    3.82
  -3 -10   5   92.46    4.08
   3  10  -5   84.18    4.20
  -3 -10   4  377.19   10.48
  -3 -10   4  383.85   10.63
   3  10  -4  355.22   10.10
  -3 -10   3  847.49   22.09
  -3 -10   3  847.49   22.16
   3  10  -3  812.32   21.40
  -3 -10   2  127.82    4.77
  -3 -10   2  122.95    4.73
   3  10  -2  122.87    4.88
  -3 -10   1  451.92   12.33
  -3 -10   1  460.24   12.52
  -3 -10   0  330.00    9.34
  -3 -10   0  342.40    9.68
  -3 -10  -1  212.72    6.85
  -3 -10  -1  209.74    6.66
  -3 -10  -2  152.14    5.67
  -3 -10  -2  164.73    5.86
  -3 -11  10   48.48    3.71
   3  11 -10   56.08    4.27
  -3 -11   9   19.29    3.29
   3  11  -9   25.68    4.08
  -3 -11   8   -3.67    3.14
   3  11  -8   -3.03    3.78
  -3 -11   7    4.27    3.14
   3  11  -7   -0.53    3.52
  -3 -11   6   20.88    3.14
   3  11  -6   22.16    3.63
  -3 -11   5   21.14    3.10
  -3 -11   5   23.37    3.29
   3  11  -5   24.58    3.63
  -3 -11   4    3.25    3.29
  -3 -11   4    3.06    3.03
   3  11  -4    0.57    3.67
  -3 -11   3   -0.11    3.25
  -3 -11   3    1.36    3.03
   3  11  -3    2.95    3.71
  -3 -11   2    5.98    3.21
  -3 -11   2    2.95    3.25
  -3 -11   0    4.12    3.78
  -3 -11   0   -1.47    3.59
   4 -11  -2   29.84    3.55
   4 -11  -2   32.30    3.18
   4 -11  -1   21.18    3.25
   4 -11  -1   23.83    3.10
   4 -11   0   24.47    3.67
   4 -11   0   12.44    3.06
  -4  11  -1   61.00    3.40
   4 -11   1   60.17    4.08
   4 -11   1   70.04    3.78
  -4  11  -2   10.70    2.91
   4 -11   2    4.80    3.25
   4 -11   2   13.43    3.10
  -4  11  -3    0.04    2.80
   4 -11   3   -2.16    2.91
   4 -11   3    4.65    3.21
  -4  11  -4   49.01    3.74
   4 -11   4   48.22    3.93
   4 -11   4   50.03    3.59
  -4  11  -5    3.37    3.10
   4 -11   5    1.66    3.21
   4 -11   5   -0.23    3.21
  -4  11  -6   42.13    3.37
   4 -11   6   49.13    3.63
  -4  11  -7    8.66    3.21
   4 -11   7   13.20    3.52
   4 -10  -5  111.18    4.61
   4 -10  -5  115.38    5.03
   4 -10  -4  676.18   18.11
   4 -10  -4  657.65   17.40
   4 -10  -3  492.01   13.43
   4 -10  -3  478.02   12.93
   4 -10  -2  422.05   11.84
   4 -10  -2  425.83   11.65
   4 -10  -1  612.27   16.45
   4 -10  -1  581.64   15.51
   4 -10   0  515.46   14.11
   4 -10   0  519.24   13.95
  -4  10  -1 1228.70   31.69
   4 -10   1 1267.65   32.90
   4 -10   1 1311.52   33.88
  -4  10  -2  419.40   11.61
   4 -10   2  442.09   12.37
   4 -10   2  475.75   12.93
  -4  10  -3  325.31    9.34
   4 -10   3  353.26   10.21
   4 -10   3  345.96    9.76
  -4  10  -4   79.80    4.08
   4 -10   4   77.90    3.90
   4 -10   4   78.70    4.27
  -4  10  -5  356.51   10.06
   4 -10   5  403.89   11.27
  -4  10  -6  519.99   13.95
   4 -10   6  557.81   15.05
  -4  10  -7  477.26   12.86
   4 -10   7  540.04   14.52
  -4  10  -8  587.69   15.62
   4 -10   8  656.52   17.40
   4  -9  -6   15.77    3.40
   4  -9  -6   18.46    3.06
   4  -9  -5   15.24    3.59
   4  -9  -5   17.09    3.25
   4  -9  -4    1.29    3.10
   4  -9  -4   -1.97    2.76
   4  -9  -3    2.84    2.95
   4  -9  -3   -0.61    3.10
   4  -9  -2    3.71    3.21
   4  -9  -2    5.03    2.80
   4  -9  -1   43.04    3.63
   4  -9  -1   47.12    3.48
  -4   9   0    0.72    2.72
   4  -9   0   -3.25    2.69
   4  -9   0    4.39    3.21
  -4   9  -1  106.53    4.24
   4  -9   1  114.29    4.61
   4  -9   1  124.72    4.65
  -4   9  -2   25.15    2.95
   4  -9   2   32.15    3.18
   4  -9   2   29.27    3.40
  -4   9  -3   12.74    3.14
   4  -9   3    8.62    2.87
   4  -9   3   13.65    3.33
  -4   9  -4   -2.19    2.65
   4  -9   4    1.10    3.25
   4  -9   4    0.00    2.61
  -4   9  -5   19.32    2.87
   4  -9   5   13.01    3.33
  -4   9  -6   55.06    3.48
   4  -9   6   53.70    3.52
  -4   9  -7    0.30    2.99
   4  -9   7    5.41    3.29
  -4   9  -8   14.30    3.10
   4  -9   8   20.23    3.25
  -4   9  -9   30.18    3.29
   4  -9   9   27.68    3.82
  -4   8   7  535.12   14.37
   4  -8  -7  474.23   13.08
   4  -8  -7  466.67   12.67
   4  -8  -6  626.26   16.90
   4  -8  -6  597.90   15.92
   4  -8  -5 1881.81   48.33
   4  -8  -5 1899.20   48.67
   4  -8  -4 1195.80   31.05
   4  -8  -4 1180.67   30.52
   4  -8  -3 1471.86   38.01
   4  -8  -3 1462.79   37.67
   4  -8  -2 1502.50   38.80
   4  -8  -2 1523.68   39.22
   4  -8  -1 2363.23   60.58
   4  -8  -1 2261.88   57.82
  -4   8   0 6175.63  156.72
   4  -8   0 6270.17  159.29
   4  -8   0 6425.23  162.99
  -4   8  -1 2227.84   56.99
   4  -8   1 2396.89   61.34
   4  -8   1 2476.30   63.27
  -4   8  -2 1772.89   45.49
   4  -8   2 1951.39   49.99
   4  -8   2 1867.44   48.07
  -4   8  -3 1592.88   40.96
   4  -8   3 1712.39   44.10
   4  -8   3 1769.11   45.42
  -4   8  -4 1274.83   32.94
   4  -8   4 1476.02   38.04
  -4   8  -5 1237.02   31.96
   4  -8   5 1454.47   37.48
  -4   8  -6  248.73    7.37
   4  -8   6  289.57    8.43
  -4   8  -7  167.65    5.67
   4  -8   7  181.30    6.01
  -4   8  -8    3.86    3.14
   4  -8   8    9.19    3.10
  -4   8  -9   29.88    3.21
   4  -8   9   34.19    3.78
  -4   8 -10   23.94    3.48
   4  -8  10   24.01    3.37
  -4   7   9   -0.42    3.74
   4  -7  -9    7.64    3.82
  -4   7   8   -2.34    2.99
   4  -7  -8   -0.98    3.37
   4  -7  -8    2.23    2.91
  -4   7   7   10.93    3.33
   4  -7  -7    2.34    3.48
   4  -7  -7    3.25    3.29
  -4   7   6   10.17    3.03
   4  -7  -6    3.03    2.72
   4  -7  -6   10.17    3.06
  -4   7   5   45.76    3.44
   4  -7  -5   43.68    3.29
   4  -7  -5   48.60    3.48
   4  -7  -4   14.98    2.99
   4  -7  -4   14.75    2.69
   4  -7  -3   48.94    3.52
   4  -7  -3   47.92    3.06
   4  -7  -2   35.36    2.95
   4  -7  -2   39.18    2.84
   4  -7  -1   48.90    3.29
   4  -7  -1   55.02    3.21
  -4   7   0  350.34    9.91
   4  -7   0  370.46   10.40
   4  -7   0  369.55   10.40
  -4   7  -1   10.85    2.57
   4  -7   1    6.66    2.72
   4  -7   1   10.21    2.65
  -4   7  -2   52.79    3.06
   4  -7   2   51.21    3.33
   4  -7   2   54.95    3.25
  -4   7  -3  113.19    4.31
   4  -7   3  124.72    4.77
  -4   7  -4   50.26    3.18
   4  -7   4   62.21    3.74
  -4   7  -5  287.49    8.28
   4  -7   5  322.74    9.30
  -4   7  -6   45.87    3.37
   4  -7   6   48.90    3.48
  -4   7  -7   95.57    4.31
   4  -7   7  104.41    4.42
  -4   7  -8  317.56    9.08
   4  -7   8  337.11    9.64
  -4   7  -9  175.63    5.90
   4  -7   9  182.92    6.20
  -4   7 -10   37.78    3.59
   4  -7  10   39.56    3.74
  -4   6  10  796.44   20.95
   4  -6 -10  704.17   18.64
   4  -6 -10  759.76   20.23
  -4   6   9  709.08   18.72
   4  -6  -9  651.98   17.59
   4  -6  -9  663.70   17.55
  -4   6   8 1218.49   31.54
   4  -6  -8 1185.21   30.78
   4  -6  -8 1121.29   29.04
  -4   6   7 1232.86   31.96
   4  -6  -7 1189.74   30.93
   4  -6  -7 1158.73   29.99
  -4   6   6 1811.85   46.55
   4  -6  -6 1763.06   45.38
   4  -6  -6 1697.26   43.57
  -4   6   5  460.62   12.67
   4  -6  -5  451.54   12.48
   4  -6  -5  408.43   11.27
  -4   6   4  180.62    5.94
   4  -6  -4  169.54    5.60
   4  -6  -4  165.79    5.48
   4  -6  -3   38.65    2.87
   4  -6  -3   39.71    3.25
   4  -6  -2   10.48    2.38
   4  -6  -2   12.56    2.53
   4  -6  -1  233.07    6.92
   4  -6  -1  227.59    6.92
  -4   6   0  153.96    5.03
   4  -6   0  163.11    5.37
   4  -6   0  172.11    5.56
  -4   6  -1   11.00    2.23
   4  -6   1   12.44    2.61
   4  -6   1   10.66    2.38
  -4   6  -2   29.65    2.61
   4  -6   2   39.07    3.03
   4  -6   2   36.27    2.80
  -4   6  -3  161.82    5.26
   4  -6   3  183.87    5.86
  -4   6  -4 1555.82   39.97
   4  -6   4 1773.27   45.57
  -4   6  -5  901.20   23.52
   4  -6   5  998.01   25.98
  -4   6  -6 1744.53   44.78
   4  -6   6 1895.42   48.67
  -4   6  -7  448.52   12.25
   4  -6   7  511.67   13.84
  -4   6  -8 1116.38   28.89
   4  -6   8 1207.14   31.24
  -4   6  -9  968.13   25.19
   4  -6   9 1094.44   28.44
  -4   6 -10 1309.25   33.81
   4  -6  10 1400.01   36.04
  -4   6 -11  504.87   13.84
   4  -6  11  514.32   13.88
  -4   5  11   -7.15    3.71
   4  -5 -11    5.60    3.48
  -4   5  10   11.80    3.14
   4  -5 -10   11.72    2.95
   4  -5 -10    8.09    3.67
  -4   5   9  447.38   12.29
   4  -5  -9  407.67   11.53
   4  -5  -9  379.31   10.59
  -4   5   8   20.19    3.18
   4  -5  -8   13.20    3.06
   4  -5  -8   13.95    2.87
  -4   5   7    1.63    2.87
   4  -5  -7    1.66    2.57
   4  -5  -7    4.08    2.99
  -4   5   6   22.09    2.95
   4  -5  -6   14.82    2.95
   4  -5  -6   11.91    2.76
  -4   5   5   -0.68    2.91
   4  -5  -5    3.78    2.50
   4  -5  -5    0.26    2.95
  -4   5   4   72.27    3.71
   4  -5  -4   69.32    3.52
   4  -5  -4   65.99    3.71
  -4   5   3   -0.83    2.42
   4  -5  -3    1.59    2.57
   4  -5  -3   -0.64    2.57
   4  -5  -2   63.34    3.10
   4  -5  -2   58.28    3.10
   4  -5  -1   -1.13    2.12
   4  -5  -1    0.83    2.19
  -4   5   0    1.06    2.08
   4  -5   0    0.79    2.16
   4  -5   0    3.71    2.31
  -4   5  -1   -2.19    2.08
   4  -5   1   -2.57    2.23
   4  -5   1    1.36    2.27
  -4   5  -2   -0.19    2.19
   4  -5   2    0.61    2.31
  -4   5  -3    2.19    2.08
   4  -5   3    1.29    2.38
  -4   5  -4   63.16    3.18
   4  -5   4   71.70    3.52
  -4   5  -5    1.59    2.53
   4  -5   5    4.77    2.76
  -4   5  -6    6.20    2.65
   4  -5   6    6.50    2.95
  -4   5  -7   36.61    3.10
   4  -5   7   48.22    3.48
  -4   5  -8   56.99    3.33
   4  -5   8   68.98    4.01
  -4   5  -9    5.45    3.14
   4  -5   9    4.01    3.37
  -4   5 -10   35.55    3.93
   4  -5  10   26.89    3.37
  -4   5 -11    1.51    3.93
   4  -5  11    5.22    3.37
  -4   4  12  209.06    6.96
   4  -4 -12  217.22    7.19
  -4   4  11  171.39    5.94
   4  -4 -11  173.13    6.24
  -4   4  10   23.75    3.52
   4  -4 -10   16.03    3.40
  -4   4   9  574.07   15.54
   4  -4  -9  582.01   15.81
  -4   4   8  618.32   16.72
   4  -4  -8  574.83   15.54
  -4   4   7 1111.08   28.93
   4  -4  -7 1062.30   27.72
  -4   4   6  974.56   25.41
   4  -4  -6  936.74   24.47
   4  -4  -6  946.58   24.81
  -4   4   5  959.44   25.00
   4  -4  -5  917.08   24.05
   4  -4  -5  918.97   24.01
  -4   4   4 4220.46  107.36
   4  -4  -4 3997.33  101.69
   4  -4  -4 3959.51  100.82
  -4   4   3 3967.08  100.94
   4  -4  -3 3800.68   96.74
   4  -4  -3 3697.44   94.17
   4  -4  -2 3263.29   83.16
   4  -4  -2 3275.77   83.50
   4  -4  -1 4644.01  117.99
   4  -4  -1 4515.43  114.85
  -4   4   0 3177.06   80.93
   4  -4   0 3453.51   87.85
   4  -4   0 3382.04   86.19
  -4   4  -1  186.10    5.56
   4  -4   1  204.25    6.20
   4  -4   1  203.23    5.94
  -4   4  -2 1482.83   38.04
   4  -4   2 1580.40   40.62
  -4   4  -3 1858.74   47.54
   4  -4   3 1896.94   48.63
  -4   4  -4 1957.44   50.03
   4  -4   4 2023.25   51.81
  -4   4  -5 1921.90   49.20
   4  -4   5 2057.66   52.72
  -4   4  -6   78.09    3.52
   4  -4   6   84.03    4.01
  -4   4  -7 1857.98   47.61
   4  -4   7 2031.57   52.07
  -4   4  -8 2129.14   54.42
   4  -4   8 2299.69   58.84
  -4   4  -9 1127.35   29.23
   4  -4   9 1180.29   30.52
  -4   4 -10  781.69   20.61
   4  -4  10  816.48   21.40
  -4   4 -11  170.97    6.20
   4  -4  11  162.88    5.67
  -4   3  13   67.92    4.08
   4  -3 -13   69.06    4.61
  -4   3  12   13.58    3.52
   4  -3 -12   13.95    3.78
  -4   3  11   37.70    3.40
   4  -3 -11   48.37    4.01
  -4   3  10  340.89    9.76
   4  -3 -10  347.43   10.06
  -4   3   9   15.69    3.06
   4  -3  -9    7.75    3.29
  -4   3   8   65.42    3.63
   4  -3  -8   62.51    3.82
  -4   3   7   19.89    3.06
   4  -3  -7   24.58    2.95
  -4   3   6   23.37    2.76
   4  -3  -6   28.29    2.72
  -4   3   5  207.77    6.32
   4  -3  -5  205.12    6.20
  -4   3   4   58.05    2.84
   4  -3  -4   61.57    3.03
   4  -3  -4   57.67    2.99
  -4   3   3    0.68    1.93
   4  -3  -3    2.38    2.00
   4  -3  -3    2.38    2.12
  -4   3   2   38.88    2.23
   4  -3  -2   41.64    2.57
   4  -3  -2   39.75    2.34
   4  -3  -1    3.48    1.70
   4  -3  -1    1.02    1.85
  -4   3   0   38.88    2.12
   4  -3   0   46.40    2.31
   4  -3   0   48.90    2.46
  -4   3  -1    0.38    1.66
   4  -3   1   -0.45    1.74
   4  -3   1   -0.53    1.66
  -4   3  -2   32.64    1.97
   4  -3   2   39.52    2.34
  -4   3  -3   80.02    3.10
   4  -3   3   89.93    3.44
  -4   3  -4   21.18    2.27
   4  -3   4   24.69    2.27
  -4   3  -5  187.88    5.67
   4  -3   5  201.57    6.13
  -4   3  -6   16.22    2.50
   4  -3   6   11.99    2.65
  -4   3  -7  138.87    4.95
   4  -3   7  147.98    5.14
  -4   3  -8  178.01    5.79
   4  -3   8  195.03    6.24
  -4   3  -9   66.07    3.93
   4  -3   9   78.47    4.01
  -4   3 -10   86.22    4.42
   4  -3  10   93.56    4.39
  -4   3 -11   -5.56    3.82
   4  -3  11    2.57    3.44
  -4   2  13  281.78    8.21
   4  -2 -13  277.62    8.47
  -4   2  12  481.42   13.08
   4  -2 -12  503.73   13.88
  -4   2  11  353.07   10.14
   4  -2 -11  346.18    9.98
  -4   2  10  628.91   16.90
   4  -2 -10  636.47   17.09
  -4   2   9  288.66    8.62
   4  -2  -9  279.81    8.40
  -4   2   8  409.94   11.42
   4  -2  -8  417.13   11.61
  -4   2   7   24.24    2.72
   4  -2  -7   30.78    2.95
  -4   2   6  168.06    5.33
   4  -2  -6  162.35    5.26
  -4   2   5  219.83    6.54
   4  -2  -5  217.45    6.43
  -4   2   4  202.44    6.01
   4  -2  -4  208.90    6.16
  -4   2   3 1085.75   28.02
   4  -2  -3 1056.63   27.27
   4  -2  -3 1061.54   27.49
  -4   2   2 2140.48   54.65
   4  -2  -2 2113.25   53.93
   4  -2  -2 2066.36   52.83
  -4   2   0  865.27   22.27
   4  -2   0  890.61   22.96
   4  -2   0  914.43   23.60
  -4   2  -2 6289.08  159.82
  -4   2  -3 6451.70  163.86
   4  -2   3 6962.24  176.87
  -4   2  -4 4957.90  125.93
   4  -2   4 5162.12  131.19
  -4   2  -5   12.63    2.19
   4  -2   5   16.22    2.42
  -4   2  -6 3001.97   76.47
   4  -2   6 3078.74   78.47
  -4   2  -7 2114.77   54.04
   4  -2   7 2168.09   55.48
  -4   2  -8 1222.27   31.54
   4  -2   8 1204.49   31.12
  -4   2  -9  865.65   22.65
   4  -2   9  881.15   23.03
  -4   2 -10  231.60    7.22
   4  -2  10  247.59    7.41
  -4   2 -11  858.46   22.50
   4  -2  11  887.58   23.11
  -4   1  14   24.28    3.25
   4  -1 -14   23.86    4.08
  -4   1  13    8.09    3.33
   4  -1 -13    4.12    3.78
  -4   1  12   23.83    3.52
   4  -1 -12   14.18    3.44
  -4   1  11   62.78    3.71
   4  -1 -11   62.25    3.93
  -4   1  10   23.75    3.48
   4  -1 -10   27.19    3.63
  -4   1   9   61.30    3.71
   4  -1  -9   63.57    3.74
  -4   1   8    4.42    2.84
   4  -1  -8    5.56    2.61
  -4   1   7    7.64    2.65
   4  -1  -7    4.77    2.42
  -4   1   6    8.17    2.23
   4  -1  -6    6.32    2.34
  -4   1   5   10.36    2.08
   4  -1  -5   12.90    2.16
  -4   1   4  127.67    4.16
   4  -1  -4  133.95    4.35
  -4   1   3  395.19   10.59
   4  -1  -3  373.30   10.02
  -4   1   2    5.75    1.47
   4  -1  -2    7.45    1.63
   4  -1  -2    6.54    1.55
   4  -1  -1  235.76    6.35
   4  -1  -1  236.78    6.47
  -4   1  -1   41.11    1.55
   4  -1   1   49.24    1.85
   4  -1   1   45.00    1.74
  -4   1  -2   57.97    1.97
   4  -1   2   65.01    2.31
  -4   1  -3    3.06    1.25
   4  -1   3    6.73    1.63
  -4   1  -4  151.04    4.46
   4  -1   4  156.75    4.73
  -4   1  -5   89.44    3.29
   4  -1   5   87.62    3.37
  -4   1  -6   18.80    2.23
   4  -1   6   18.68    2.38
  -4   1  -7    6.01    2.38
   4  -1   7    4.24    2.38
  -4   1  -8    2.53    2.65
   4  -1   8    3.21    2.69
  -4   1  -9   -2.31    3.21
   4  -1   9    3.44    2.95
  -4   1 -10    0.98    3.52
   4  -1  10    3.55    3.06
  -4   1 -11   19.74    3.55
   4  -1  11   19.10    3.18
  -4   0  14    4.88    3.14
   4   0 -14    9.57    4.01
  -4   0  13   89.40    4.35
   4   0 -13   99.57    4.92
  -4   0  12  438.69   12.06
   4   0 -12  454.57   12.63
  -4   0  11  350.99    9.98
   4   0 -11  365.43   10.48
  -4   0  10 1075.16   28.02
   4   0 -10 1098.60   28.67
  -4   0   9 4012.46  102.11
   4   0  -9 4001.11  101.81
  -4   0   8 2312.55   59.18
   4   0  -8 2393.86   61.19
  -4   0   7 3028.82   77.22
   4   0  -7 3078.74   78.51
  -4   0   6 4780.16  121.39
   4   0  -6 4882.27  124.08
  -4   0   5 3273.88   83.39
   4   0  -5 3385.82   86.15
  -4   0   3  994.23   25.56
   4   0  -3  993.09   25.53
  -4   0   2 3793.12   96.59
   4   0  -1  866.03   22.43
   4   0  -1  865.65   22.43
  -4   0  -2 1878.78   48.75
   4   0   2 1856.85   48.22
  -4   0  -3 2605.64   66.67
   4   0   3 2529.63   64.74
  -4   0  -4  201.80    5.56
   4   0   4  203.72    5.71
  -4   0  -5 1375.43   35.25
   4   0   5 1343.28   34.53
  -4   0  -6  515.46   13.58
   4   0   6  504.49   13.39
  -4   0  -7  622.86   16.41
   4   0   7  608.49   16.07
  -4   0  -8   61.98    3.48
   4   0   8   60.36    3.25
  -4   0  -9   67.43    3.74
   4   0   9   59.64    3.67
  -4   0 -10    4.58    3.59
   4   0  10    5.60    3.03
  -4  -1  14   40.09    3.48
   4   1 -14   42.24    4.27
  -4  -1  13    6.73    3.03
   4   1 -13    7.60    3.40
  -4  -1  12   52.94    3.78
   4   1 -12   55.10    3.82
  -4  -1  11   58.84    3.59
   4   1 -11   61.98    4.05
  -4  -1  10  197.79    6.32
   4   1 -10  192.00    6.24
  -4  -1   9   11.19    2.91
   4   1  -9   10.85    2.99
  -4  -1   8  129.41    4.69
   4   1  -8  135.65    4.80
  -4  -1   7   10.97    2.46
   4   1  -7   12.78    2.53
  -4  -1   6  277.24    7.83
   4   1  -6  283.75    7.98
  -4  -1   5 1418.16   36.38
   4   1  -5 1504.39   38.57
  -4  -1   4 2051.23   52.34
   4   1  -4 2152.58   54.87
  -4  -1   3  474.61   12.40
   4   1  -3  497.30   12.97
  -4  -1   2  441.33   11.50
   4   1  -2  468.94   12.18
   4   1   2  125.78    3.63
  -4  -1  -3  465.91   12.14
   4   1   3  467.05   12.22
  -4  -1  -4  686.77   17.74
   4   1   4  676.94   17.59
  -4  -1  -5   49.28    2.31
   4   1   5   52.07    2.53
  -4  -1  -6   20.54    2.34
   4   1   6   19.74    2.34
  -4  -1  -7   56.35    3.25
   4   1   7   54.31    3.06
  -4  -1  -8   11.91    2.84
   4   1   8    7.45    2.84
  -4  -1  -9   28.21    3.44
   4   1   9   37.29    3.25
  -4  -1 -10    5.18    3.37
   4   1  10    4.80    3.21
  -4  -2  14  546.47   14.67
   4   2 -14  547.60   14.90
  -4  -2  13  519.62   14.03
   4   2 -13  529.07   14.45
  -4  -2  12  727.61   19.25
   4   2 -12  765.81   20.42
  -4  -2  11  899.68   23.64
   4   2 -11  916.32   24.17
  -4  -2  10 1913.58   49.09
   4   2 -10 2061.44   52.87
  -4  -2   9 1202.98   31.16
   4   2  -9 1198.82   31.09
  -4  -2   8 1329.67   34.41
   4   2  -8 1304.33   33.70
  -4  -2   7 2973.61   75.79
   4   2  -7 2976.25   75.82
  -4  -2   6 3789.33   96.44
   4   2  -6 4099.44  104.15
  -4  -2   4 2241.08   57.18
   4   2  -4 2424.11   61.76
  -4  -2   3 2875.28   73.29
   4   2  -3 3149.84   80.29
  -4  -2   2  366.83    9.61
   4   2  -2  387.25   10.14
  -4  -2  -2  359.68    9.57
  -4  -2  -2  365.89    9.72
  -4  -2  -3   10.06    1.25
  -4  -2  -3    8.62    1.13
   4   2   3   11.00    1.32
  -4  -2  -4  704.17   18.23
   4   2   4  684.12   17.74
  -4  -2  -5 1246.47   32.03
   4   2   5 1214.70   31.28
  -4  -2  -6 2299.32   58.73
   4   2   6 2279.27   58.24
  -4  -2  -7 1685.16   43.23
   4   2   7 1648.85   42.28
  -4  -2  -8 1102.39   28.51
   4   2   8 1071.75   27.72
  -4  -2  -9 1052.09   27.30
   4   2   9  986.66   25.56
  -4  -3  14   18.00    3.48
   4   3 -14   22.88    3.78
  -4  -3  13  156.26    5.48
   4   3 -13  152.93    5.75
  -4  -3  12   10.40    3.03
   4   3 -12    1.78    3.67
  -4  -3  11    3.29    3.18
   4   3 -11    1.63    3.14
  -4  -3  10    5.82    2.95
   4   3 -10   14.86    2.99
  -4  -3   9   12.03    2.80
   4   3  -9   11.95    2.87
  -4  -3   8   28.33    2.91
   4   3  -8   25.98    2.76
  -4  -3   7   19.74    2.65
   4   3  -7   16.75    2.42
  -4  -3   6   49.96    2.95
   4   3  -6   51.73    2.84
  -4  -3   5   76.73    3.10
   4   3  -5   71.48    2.91
  -4  -3   4   62.17    2.57
   4   3  -4   69.32    2.65
  -4  -3   3  178.84    4.99
   4   3  -3  190.98    5.37
  -4  -3   2    8.89    1.17
   4   3  -2    9.34    1.13
  -4  -3   1    7.79    0.91
  -4  -3   1    9.04    0.83
  -4  -3  -1   14.48    1.02
  -4  -3  -1   13.31    0.98
  -4  -3  -2  208.41    5.63
  -4  -3  -2  204.37    5.52
  -4  -3  -3  106.57    3.29
  -4  -3  -3  113.49    3.40
  -4  -3  -4   15.54    1.74
  -4  -3  -4   18.46    1.85
   4   3   4   12.44    1.85
  -4  -3  -5   18.42    2.08
  -4  -3  -5   15.81    2.31
   4   3   5   14.56    2.23
  -4  -3  -6   20.80    2.72
  -4  -3  -6   21.90    2.50
   4   3   6   18.76    2.53
  -4  -3  -7   13.84    2.69
  -4  -3  -7   17.55    2.99
   4   3   7   14.22    2.87
  -4  -3  -8   49.20    3.59
  -4  -3  -8   54.46    3.71
   4   3   8   47.84    3.52
  -4  -3  -9   48.82    3.82
  -4  -3  -9   47.65    4.12
   4   3   9   41.03    3.74
  -4  -4  14  157.28    5.45
   4   4 -14  167.53    6.13
  -4  -4  13 1286.56   33.24
   4   4 -13 1308.87   34.00
  -4  -4  12  629.29   16.87
   4   4 -12  621.72   16.90
  -4  -4  11  816.11   21.56
   4   4 -11  840.69   22.24
  -4  -4  10  191.58    6.24
   4   4 -10  189.81    6.28
  -4  -4   9   11.72    2.76
   4   4  -9    6.69    2.72
  -4  -4   8  523.40   14.11
   4   4  -8  521.13   14.03
  -4  -4   7   39.33    2.87
   4   4  -7   45.65    2.95
  -4  -4   6  136.48    4.69
   4   4  -6  142.04    4.69
  -4  -4   5  315.21    8.74
   4   4  -5  315.93    8.74
  -4  -4   4  909.52   23.48
   4   4  -4  863.00   22.35
  -4  -4   3   27.87    1.78
   4   4  -3   27.49    1.85
  -4  -4   2 2225.19   56.80
   4   4  -2 2192.29   56.01
  -4  -4   1 2746.32   70.19
  -4  -4   1 2637.03   67.43
  -4  -4   0 2856.75   73.10
  -4  -4   0 3104.08   79.45
  -4  -4  -1 2354.53   60.28
  -4  -4  -1 2166.58   55.44
  -4  -4  -2    8.77    1.55
  -4  -4  -2   11.76    1.55
  -4  -4  -3 1431.40   36.68
  -4  -4  -3 1421.57   36.46
  -4  -4  -4  709.08   18.46
  -4  -4  -4  707.19   18.42
  -4  -4  -5  486.71   12.97
  -4  -4  -5  517.35   13.77
   4   4   5  513.94   13.61
  -4  -4  -6  223.69    6.73
  -4  -4  -6  201.72    6.20
   4   4   6  206.33    6.28
  -4  -4  -7   12.59    3.25
  -4  -4  -7   13.58    3.03
   4   4   7   10.66    2.84
  -4  -4  -8  277.05    8.40
  -4  -4  -8  273.04    8.28
   4   4   8  265.56    7.83
  -4  -5  14  409.19   11.42
   4   5 -14  439.44   12.33
  -4  -5  13   62.25    3.82
   4   5 -13   71.21    4.27
  -4  -5  12   57.45    3.74
   4   5 -12   45.00    3.82
  -4  -5  11  118.67    4.77
   4   5 -11  126.16    5.18
  -4  -5  10   40.43    3.40
   4   5 -10   39.78    3.48
  -4  -5   9  203.23    6.47
   4   5  -9  203.38    6.39
  -4  -5   8    5.79    2.80
   4   5  -8    7.90    2.57
  -4  -5   7    9.61    2.50
   4   5  -7    1.59    2.57
  -4  -5   6   98.52    3.93
   4   5  -6  104.98    4.01
  -4  -5   5   -1.21    2.12
   4   5  -5    3.40    2.31
  -4  -5   4    7.49    1.89
   4   5  -4    8.70    2.12
  -4  -5   3   34.64    2.08
   4   5  -3   29.95    2.19
  -4  -5   2    1.70    1.51
  -4  -5   2    4.27    1.55
   4   5  -2    2.76    1.70
  -4  -5   1   16.34    1.59
  -4  -5   1   17.02    1.66
  -4  -5   0    7.68    1.63
  -4  -5   0    6.24    1.44
  -4  -5  -1   11.53    1.70
  -4  -5  -1    8.55    1.63
  -4  -5  -2   66.60    2.72
  -4  -5  -2   60.81    2.61
  -4  -5  -3   20.88    2.34
  -4  -5  -3   18.19    2.27
  -4  -5  -4   67.05    3.14
  -4  -5  -4   68.34    3.21
  -4  -5  -5    1.02    2.69
  -4  -5  -5   -0.68    2.80
  -4  -5  -6   -1.17    3.21
  -4  -5  -6    0.95    3.29
  -4  -5  -7   49.43    3.93
  -4  -5  -7   37.36    3.97
   4   5   7   39.41    3.44
  -4  -6  14  671.64   17.89
   4   6 -14  689.04   18.46
  -4  -6  13  395.95   11.16
   4   6 -13  400.87   11.35
  -4  -6  12 1117.51   29.01
   4   6 -12 1118.27   29.16
  -4  -6  11  598.65   16.07
   4   6 -11  600.55   16.30
  -4  -6  10  758.62   20.12
   4   6 -10  727.23   19.40
  -4  -6   9 1949.12   49.92
   4   6  -9 1925.68   49.43
  -4  -6   8 1023.73   26.62
   4   6  -8  989.31   25.75
  -4  -6   7 1053.60   27.30
   4   6  -7 1123.94   29.16
  -4  -6   6  993.09   25.79
   4   6  -6  952.25   24.77
  -4  -6   5  675.05   17.74
   4   6  -5  659.16   17.32
  -4  -6   4    7.94    2.19
   4   6  -4    7.45    2.31
  -4  -6   3  764.67   19.85
   4   6  -3  783.96   20.38
  -4  -6   2 1216.60   31.28
  -4  -6   2 1188.23   30.52
   4   6  -2 1177.26   30.33
  -4  -6   1 1863.66   47.61
  -4  -6   1 1871.60   47.80
  -4  -6   0 2169.98   55.40
  -4  -6   0 2091.70   53.40
  -4  -6  -1  150.25    4.65
  -4  -6  -1  156.19    4.80
  -4  -6  -2 3667.94   93.45
  -4  -6  -2 3567.34   90.88
  -4  -6  -3 3351.78   85.43
  -4  -6  -3 3435.36   87.55
  -4  -6  -4 2301.21   58.84
  -4  -6  -4 2157.12   55.14
  -4  -6  -5 1397.36   36.04
  -4  -6  -5 1343.28   34.60
  -4  -6  -6  484.82   13.31
  -4  -6  -6  525.67   14.26
  -4  -7  14    1.47    3.74
   4   7 -14    3.44    3.86
  -4  -7  13   -1.70    3.33
   4   7 -13    3.55    3.78
  -4  -7  12    4.46    3.59
   4   7 -12    1.55    3.78
  -4  -7  11   45.53    3.71
   4   7 -11   56.39    3.90
  -4  -7  10   18.30    3.48
   4   7 -10   20.95    3.67
  -4  -7   9  120.71    4.88
   4   7  -9  116.52    4.92
  -4  -7   8  109.75    4.50
   4   7  -8  105.55    4.46
  -4  -7   7    5.37    2.95
   4   7  -7    4.08    2.69
  -4  -7   6   53.44    3.18
   4   7  -6   54.12    3.40
  -4  -7   5   93.41    3.90
   4   7  -5   90.72    3.82
  -4  -7   4    4.92    2.53
   4   7  -4    2.08    2.42
  -4  -7   3   25.41    2.50
  -4  -7   3   22.27    2.50
   4   7  -3   26.74    2.65
  -4  -7   2    3.10    2.19
  -4  -7   2    3.18    2.12
   4   7  -2    3.97    2.23
  -4  -7   1   11.84    2.19
  -4  -7   1    5.18    2.00
  -4  -7   0   10.55    2.42
  -4  -7   0   16.26    2.46
  -4  -7  -1   12.56    2.53
  -4  -7  -1    9.30    2.50
  -4  -7  -2   15.13    2.76
  -4  -7  -2   16.45    2.95
  -4  -7  -3   28.25    3.25
  -4  -7  -3   30.86    3.14
  -4  -7  -4    4.27    3.21
  -4  -7  -4    7.49    3.40
  -4  -7  -5    3.97    3.48
  -4  -7  -5    2.84    3.59
  -4  -8  13   25.56    4.01
   4   8 -13   28.25    4.20
  -4  -8  12   27.04    3.59
   4   8 -12   27.72    4.05
  -4  -8  11    2.38    3.21
   4   8 -11    6.81    3.78
  -4  -8  10   97.91    4.46
   4   8 -10  108.31    4.99
  -4  -8   9  237.08    7.30
   4   8  -9  241.39    7.56
  -4  -8   8 1717.68   44.13
   4   8  -8 1705.20   43.87
  -4  -8   7  799.47   20.99
   4   8  -7  796.06   20.95
  -4  -8   6 1587.97   40.81
   4   8  -6 1567.17   40.28
  -4  -8   5 1577.38   40.54
   4   8  -5 1514.22   38.95
  -4  -8   4 2075.44   53.10
   4   8  -4 1989.21   50.94
  -4  -8   3 2966.04   75.64
  -4  -8   3 2973.61   75.82
   4   8  -3 2835.95   72.31
  -4  -8   2 1059.65   27.46
  -4  -8   2 1089.91   28.21
   4   8  -2 1076.67   27.87
  -4  -8   1 1249.12   32.22
  -4  -8   1 1181.42   30.48
  -4  -8   0  151.20    5.07
  -4  -8   0  154.60    5.11
  -4  -8  -1  650.46   17.21
  -4  -8  -1  619.83   16.38
  -4  -8  -2  596.39   16.00
  -4  -8  -2  597.90   15.88
  -4  -8  -3  671.26   17.81
  -4  -8  -3  672.02   17.85
  -4  -8  -4  271.95    8.24
  -4  -8  -4  272.97    8.24
  -4  -9  12    9.15    3.67
   4   9 -12    5.11    4.08
  -4  -9  11   -1.40    3.52
   4   9 -11   -7.22    3.52
  -4  -9  10   83.27    4.27
   4   9 -10   75.75    4.24
  -4  -9   9   16.03    3.52
   4   9  -9   24.54    3.74
  -4  -9   8   77.79    3.97
   4   9  -8   70.34    4.16
  -4  -9   7   11.38    2.99
   4   9  -7    9.98    3.33
  -4  -9   6   96.78    4.27
   4   9  -6  100.75    4.35
  -4  -9   5    6.43    3.06
   4   9  -5    3.06    2.99
  -4  -9   4    8.81    2.95
  -4  -9   4    9.53    3.10
   4   9  -4    4.73    2.84
  -4  -9   3   14.64    3.18
  -4  -9   3   11.35    2.87
   4   9  -3   13.58    3.06
  -4  -9   2   12.67    3.14
  -4  -9   2   12.52    2.95
  -4  -9   1  156.22    5.41
  -4  -9   1  156.57    5.33
  -4  -9   0   41.33    3.33
  -4  -9   0   48.07    3.71
  -4  -9  -1   -4.46    3.29
  -4  -9  -1    0.79    3.21
  -4  -9  -2   73.03    4.05
  -4  -9  -2   69.70    4.12
  -4 -10  11  740.85   19.63
   4  10 -11  696.22   18.61
  -4 -10  10  780.18   20.57
   4  10 -10  739.71   19.67
  -4 -10   9 1320.59   34.07
   4  10  -9 1296.39   33.62
  -4 -10   8  307.57    8.96
   4  10  -8  320.13    9.34
  -4 -10   7  405.03   11.23
   4  10  -7  409.94   11.50
  -4 -10   6  449.27   12.29
   4  10  -6  456.08   12.59
  -4 -10   5  850.52   22.27
  -4 -10   5  846.36   22.16
   4  10  -5  788.12   20.80
  -4 -10   4 1111.84   28.78
  -4 -10   4 1075.16   27.91
   4  10  -4 1042.26   27.19
  -4 -10   3  437.55   12.06
  -4 -10   3  402.76   11.16
   4  10  -3  408.81   11.53
  -4 -10   2  568.02   15.24
  -4 -10   2  580.50   15.51
  -4 -10   1  249.90    7.71
  -4 -10   1  271.68    8.06
  -4 -10   0  195.56    6.50
  -4 -10   0  196.88    6.43
  -4 -11   8   45.38    3.82
   4  11  -8   38.31    4.01
  -4 -11   7   59.30    4.01
   4  11  -7   60.39    4.31
  -4 -11   6   25.72    3.25
  -4 -11   6   31.09    3.78
   4  11  -6   27.19    3.90
  -4 -11   5    7.15    3.40
  -4 -11   5   17.47    3.59
   4  11  -5   13.24    3.78
  -4 -11   4   -1.59    3.33
  -4 -11   4   -0.08    3.37
   4  11  -4   -4.46    3.67
  -4 -11   3   32.64    3.71
  -4 -11   3   31.20    3.71
   4  11  -3   34.53    4.35
   5 -11  -1    4.69    3.14
   5 -11  -1   -0.72    3.18
   5 -11   0   80.82    4.50
   5 -11   0   92.43    4.24
   5 -11   1   12.86    3.71
   5 -11   1   15.92    3.14
  -5  11  -2    4.05    3.29
   5 -11   2    3.59    3.63
   5 -11   2   -1.36    3.14
  -5  11  -3   80.74    3.90
   5 -11   3   83.01    3.97
   5 -11   3   84.98    4.35
  -5  11  -4    1.74    3.44
   5 -11   4   -2.99    3.78
   5 -11   4   -2.99    3.67
   5 -10  -4  368.08   10.40
   5 -10  -4  378.93   10.85
   5 -10  -3  289.08    8.55
   5 -10  -3  280.53    8.58
   5 -10  -2  656.89   17.55
   5 -10  -2  665.97   17.62
   5 -10  -1  656.89   17.51
   5 -10  -1  680.34   17.96
   5 -10   0 1653.77   42.43
   5 -10   0 1601.20   41.22
  -5  10  -1  830.48   21.71
   5 -10   1  912.92   23.86
   5 -10   1  897.04   23.60
  -5  10  -2  512.81   13.80
   5 -10   2  563.11   15.16
   5 -10   2  562.35   15.32
  -5  10  -3  307.80    8.77
   5 -10   3  335.48    9.61
   5 -10   3  314.23    9.34
  -5  10  -4  560.08   14.94
   5 -10   4  620.59   16.72
   5 -10   4  637.23   16.90
  -5  10  -5  760.14   19.89
   5 -10   5  868.29   22.84
   5 -10   5  882.67   23.03
  -5  10  -6  495.41   13.27
   5 -10   6  596.76   16.19
   5 -10   6  563.11   15.09
   5  -9  -6   -4.46    2.91
   5  -9  -6    1.06    3.67
   5  -9  -5   24.77    3.71
   5  -9  -5   20.88    3.06
   5  -9  -4    1.55    3.21
   5  -9  -4   -0.42    2.84
   5  -9  -3    4.92    3.37
   5  -9  -3    0.87    3.18
   5  -9  -2   -2.12    2.99
   5  -9  -2    6.69    3.18
   5  -9  -1   -0.42    3.33
   5  -9  -1   -1.47    2.76
   5  -9   0  114.10    4.58
   5  -9   0  122.95    4.84
  -5   9  -1    4.24    2.87
   5  -9   1    0.87    3.06
   5  -9   1    2.04    3.06
  -5   9  -2   16.60    2.87
   5  -9   2   10.32    2.87
   5  -9   2   17.74    3.29
  -5   9  -3   10.36    2.72
   5  -9   3   10.85    3.18
   5  -9   3    8.24    3.06
  -5   9  -4   34.04    2.99
   5  -9   4   35.36    3.52
   5  -9   4   39.22    3.29
  -5   9  -5   57.03    3.40
   5  -9   5   66.45    3.74
   5  -9   5   71.06    4.12
  -5   9  -6   -2.46    2.95
   5  -9   6   -3.52    3.48
  -5   9  -7    8.55    3.18
   5  -9   7    9.98    3.59
  -5   9  -8   21.22    3.63
   5  -9   8   26.59    3.37
  -5   8   8   69.13    3.93
   5  -8  -8   61.23    4.35
   5  -8  -8   54.46    3.59
   5  -8  -7   51.36    3.86
   5  -8  -7   45.68    3.29
   5  -8  -6  346.90   10.02
   5  -8  -6  325.16    9.27
   5  -8  -4   53.85    3.59
   5  -8  -4   45.84    3.25
   5  -8  -3   37.44    3.67
   5  -8  -3   31.46    2.99
   5  -8  -2  239.01    7.22
   5  -8  -2  236.13    7.41
   5  -8  -1 2961.88   75.64
   5  -8  -1 3180.47   81.04
   5  -8   0  510.16   13.95
   5  -8   0  514.70   13.92
  -5   8  -1 1075.54   27.91
   5  -8   1 1146.25   29.80
   5  -8   1 1195.42   30.93
  -5   8  -2 1598.93   41.07
   5  -8   2 1773.27   45.61
   5  -8   2 1774.03   45.49
  -5   8  -3 2064.85   52.83
   5  -8   3 2309.15   59.15
   5  -8   3 2263.01   57.86
  -5   8  -4 2818.93   71.85
   5  -8   4 3130.93   79.76
   5  -8   4 3151.73   80.36
  -5   8  -5  941.28   24.47
   5  -8   5 1095.96   28.44
  -5   8  -6  788.50   20.65
   5  -8   6  866.40   22.65
  -5   8  -7  292.03    8.47
   5  -8   7  330.98    9.53
  -5   8  -8  183.68    6.24
   5  -8   8  215.03    6.85
  -5   8  -9   85.35    4.77
   5  -8   9   97.42    4.73
  -5   7   9   10.48    3.21
   5  -7  -9    9.87    3.21
   5  -7  -9   12.37    3.52
  -5   7   8   33.92    3.29
   5  -7  -8   28.93    3.18
   5  -7  -8   34.83    3.59
  -5   7   7    2.87    3.33
   5  -7  -7    3.86    3.29
   5  -7  -7   -4.88    3.33
  -5   7   6    6.39    3.10
   5  -7  -6    3.37    3.52
   5  -7  -6    1.32    2.76
   5  -7  -5    7.26    2.95
   5  -7  -5    2.12    2.72
   5  -7  -4    4.20    3.29
   5  -7  -4    2.65    2.99
   5  -7  -3    1.55    3.06
   5  -7  -3   10.14    2.65
   5  -7  -2    1.44    2.99
   5  -7  -2   -1.70    2.42
   5  -7  -1  137.43    4.99
   5  -7  -1  138.79    4.95
  -5   7   0    9.19    2.50
   5  -7   0   14.75    2.80
   5  -7   0    9.87    2.95
  -5   7  -1    4.80    2.61
   5  -7   1    4.08    2.57
   5  -7   1   -0.64    2.72
  -5   7  -2   15.54    2.57
   5  -7   2   14.30    3.03
   5  -7   2   21.33    2.99
  -5   7  -3   16.60    2.65
   5  -7   3   23.52    3.14
   5  -7   3   21.71    2.99
  -5   7  -4  157.21    5.29
   5  -7   4  169.35    5.71
  -5   7  -5    3.10    2.65
   5  -7   5    2.00    3.06
  -5   7  -6   33.13    3.21
   5  -7   6   32.22    3.33
  -5   7  -7  269.00    8.02
   5  -7   7  293.65    8.62
  -5   7  -8   42.43    3.93
   5  -7   8   49.73    4.05
  -5   7  -9   50.34    4.01
   5  -7   9   61.98    4.16
  -5   6  10  446.63   12.29
  -5   6   9 1295.63   33.43
   5  -6  -9 1176.13   30.41
   5  -6  -9 1154.95   30.07
  -5   6   8 1845.50   47.31
   5  -6  -8 1718.44   44.25
   5  -6  -8 1678.35   43.07
  -5   6   7 3510.24   89.36
   5  -6  -7 3352.92   85.51
   5  -6  -7 3317.37   84.48
  -5   6   6 3080.25   78.55
   5  -6  -6 2875.66   73.40
   5  -6  -6 2870.36   73.18
  -5   6   5 2685.43   68.64
   5  -6  -5 2557.61   65.42
   5  -6  -5 2657.45   67.81
   5  -6  -4 2654.05   67.84
   5  -6  -4 2665.77   68.03
   5  -6  -3 2264.90   57.97
   5  -6  -3 2242.97   57.41
   5  -6  -2 4326.34  110.01
   5  -6  -2 4341.47  110.47
   5  -6  -1  653.49   17.40
   5  -6  -1  654.25   17.36
  -5   6   0  357.68    9.91
   5  -6   0  399.73   11.04
   5  -6   0  404.65   11.23
  -5   6  -1  188.37    5.82
   5  -6   1  215.75    6.62
   5  -6   1  208.83    6.47
  -5   6  -2  417.89   11.35
   5  -6   2  468.56   12.71
   5  -6   2  482.55   13.08
  -5   6  -3  665.21   17.59
   5  -6   3  713.62   18.80
   5  -6   3  729.50   19.25
  -5   6  -4  498.82   13.43
   5  -6   4  558.19   14.98
  -5   6  -5  336.50    9.49
   5  -6   5  380.07   10.63
  -5   6  -6  179.07    5.71
   5  -6   6  205.99    6.73
  -5   6  -7  509.40   13.88
   5  -6   7  600.55   16.00
  -5   6  -8  472.34   12.97
   5  -6   8  563.48   15.16
  -5   6  -9  754.08   19.93
   5  -6   9  852.03   22.27
  -5   6 -10  238.02    7.90
   5  -6  10  244.30    7.64
  -5   5  11   12.48    3.21
   5  -5 -11   16.26    3.29
   5  -5 -11   17.85    3.71
  -5   5  10  107.55    4.54
   5  -5 -10  113.15    5.14
   5  -5 -10  100.78    4.35
  -5   5   9    4.50    3.14
   5  -5  -9    3.25    3.55
   5  -5  -9    2.95    2.95
  -5   5   8    6.85    3.29
   5  -5  -8   11.27    3.48
   5  -5  -8   10.55    3.21
  -5   5   7    5.07    3.25
   5  -5  -7    5.33    3.21
   5  -5  -7    7.37    3.14
  -5   5   6   25.53    3.37
   5  -5  -6   28.59    3.18
   5  -5  -6   26.47    3.18
  -5   5   5  191.47    6.13
   5  -5  -5  183.91    6.01
   5  -5  -5  186.44    5.94
  -5   5   4    5.11    2.65
   5  -5  -4    8.02    2.61
   5  -5  -4    3.93    2.65
   5  -5  -3   14.14    2.53
   5  -5  -3   19.89    2.69
   5  -5  -2   30.18    2.65
   5  -5  -2   29.42    2.80
   5  -5  -1    7.07    2.42
   5  -5  -1    5.75    2.38
  -5   5   0   27.87    2.42
   5  -5   0   27.15    2.57
   5  -5   0   32.86    2.76
  -5   5  -1    2.27    2.12
   5  -5   1    4.92    2.23
   5  -5   1    0.95    2.38
  -5   5  -2    9.08    2.27
   5  -5   2   23.45    2.53
   5  -5   2   15.62    2.50
  -5   5  -3   12.25    2.38
   5  -5   3   13.73    2.61
  -5   5  -4   23.30    2.53
   5  -5   4   26.85    2.76
  -5   5  -5    3.29    2.46
   5  -5   5    2.65    2.72
  -5   5  -6  147.53    5.07
   5  -5   6  166.51    5.71
  -5   5  -7   91.44    4.42
   5  -5   7  102.41    4.46
  -5   5  -8    4.88    3.59
   5  -5   8   -5.29    3.21
  -5   5  -9   95.57    4.54
   5  -5   9  102.41    4.58
  -5   5 -10   37.44    4.31
   5  -5  10   38.12    3.55
  -5   4  12  238.48    7.30
   5  -4 -12  238.40    7.60
  -5   4  11   43.91    3.86
   5  -4 -11   43.38    4.12
  -5   4  10  389.52   10.89
   5  -4 -10  393.30   11.19
  -5   4   9  159.44    5.56
   5  -4  -9  150.89    5.67
  -5   4   8  360.33   10.36
   5  -4  -8  352.01   10.17
  -5   4   7   89.59    4.31
   5  -4  -7   83.01    3.93
   5  -4  -7   82.90    4.27
  -5   4   6   78.40    3.90
   5  -4  -6   71.25    3.78
   5  -4  -6   77.60    3.93
  -5   4   5  746.14   19.67
   5  -4  -5  705.30   18.76
   5  -4  -5  709.08   18.76
  -5   4   4  728.37   19.21
   5  -4  -4  706.81   18.61
   5  -4  -4  686.39   18.23
   5  -4  -3 2482.35   63.38
   5  -4  -3 2462.69   62.89
   5  -4  -2 1165.92   30.14
   5  -4  -2 1172.35   30.33
   5  -4  -1 1780.08   45.61
   5  -4  -1 1792.94   46.02
  -5   4   0  307.00    8.62
   5  -4   0  292.10    8.24
   5  -4   0  290.36    8.17
  -5   4  -1 1089.53   28.10
   5  -4   1 1178.02   30.44
   5  -4   1 1152.68   29.72
  -5   4  -2 1373.16   35.28
   5  -4   2 1525.19   39.14
   5  -4   2 1571.70   40.39
  -5   4  -3 1010.87   26.13
   5  -4   3 1145.12   29.57
  -5   4  -4  693.20   18.15
   5  -4   4  743.50   19.51
  -5   4  -5  151.91    4.92
   5  -4   5  171.39    5.60
  -5   4  -6 1234.75   31.88
   5  -4   6 1388.29   35.78
  -5   4  -7 1608.39   41.33
   5  -4   7 1750.96   44.89
  -5   4  -8  916.32   23.98
   5  -4   8  985.15   25.64
  -5   4  -9  753.33   19.85
   5  -4   9  818.38   21.37
  -5   4 -10  297.55    9.04
   5  -4  10  322.77    9.34
  -5   3  12    8.55    3.52
   5  -3 -12    7.79    3.78
  -5   3  11  324.74    9.45
   5  -3 -11  327.99    9.68
  -5   3  10    2.42    3.06
   5  -3 -10    2.04    3.59
  -5   3   9    9.98    3.03
   5  -3  -9   10.74    3.52
  -5   3   8    6.32    2.87
   5  -3  -8    3.86    3.29
  -5   3   7    4.39    2.87
   5  -3  -7    2.95    2.87
  -5   3   6   84.26    3.74
   5  -3  -6   87.25    3.86
  -5   3   5   79.64    3.67
   5  -3  -5   73.67    3.40
   5  -3  -5   71.06    3.52
  -5   3   4  251.19    7.34
   5  -3  -4  234.51    6.92
   5  -3  -4  225.51    6.77
  -5   3   3  304.77    8.55
   5  -3  -3  281.51    7.98
   5  -3  -3  281.67    8.09
   5  -3  -2    9.64    2.12
   5  -3  -2   11.61    2.08
   5  -3  -1  119.66    4.05
   5  -3  -1  123.21    4.12
   5  -3   0   17.85    2.00
   5  -3   0   15.62    1.97
  -5   3  -1   15.05    1.85
   5  -3   1   18.15    2.08
   5  -3   1   16.60    2.00
  -5   3  -2    8.96    1.70
   5  -3   2    8.24    1.89
   5  -3   2   11.91    2.00
  -5   3  -3   31.09    2.08
   5  -3   3   40.77    2.50
  -5   3  -4    2.65    1.93
   5  -3   4    1.66    2.38
  -5   3  -5    2.31    2.38
   5  -3   5    0.72    2.46
  -5   3  -6    2.87    2.57
   5  -3   6   -0.87    2.80
  -5   3  -7   36.12    3.21
   5  -3   7   36.12    3.03
  -5   3  -8   11.04    3.25
   5  -3   8   15.66    3.33
  -5   3  -9   12.44    3.71
   5  -3   9   20.57    3.59
  -5   3 -10   20.69    4.05
   5  -3  10   18.80    3.40
  -5   2  13  556.68   14.94
   5  -2 -13  563.48   15.39
  -5   2  12  836.53   22.01
   5  -2 -12  881.53   23.22
  -5   2  11 1337.99   34.53
   5  -2 -11 1415.52   36.61
  -5   2  10 1352.74   34.94
   5  -2 -10 1324.75   34.38
  -5   2   9 2196.83   56.27
   5  -2  -9 2247.51   57.63
  -5   2   8  772.24   20.35
   5  -2  -8  768.46   20.27
  -5   2   7  569.16   15.24
   5  -2  -7  584.66   15.66
  -5   2   6  411.46   11.31
   5  -2  -6  426.96   11.69
  -5   2   5  276.49    7.98
   5  -2  -5  272.51    7.83
  -5   2   4  998.39   25.87
   5  -2  -4  934.85   24.28
   5  -2  -4  906.11   23.64
  -5   2   3  273.61    7.64
   5  -2  -3  259.32    7.30
   5  -2  -3  258.37    7.37
   5  -2  -2  303.07    8.28
   5  -2  -2  296.07    8.09
   5  -2  -1  191.77    5.48
   5  -2  -1  193.29    5.60
   5  -2   0 1328.16   34.07
   5  -2   0 1354.63   34.75
  -5   2  -1 2759.56   70.38
   5  -2   1 2985.71   76.13
   5  -2   1 3042.06   77.64
  -5   2  -2 2670.31   68.11
   5  -2   2 2915.37   74.39
   5  -2   2 2964.15   75.64
  -5   2  -3 1863.28   47.61
   5  -2   3 1985.43   50.79
  -5   2  -4   41.07    2.23
   5  -2   4   43.76    2.53
  -5   2  -5 1743.02   44.62
   5  -2   5 1854.20   47.50
  -5   2  -6 1783.10   45.65
   5  -2   6 1837.18   47.05
  -5   2  -7  269.87    7.79
   5  -2   7  288.89    8.21
  -5   2  -8  348.49    9.91
   5  -2   8  345.28    9.64
  -5   2  -9   16.98    3.74
   5  -2   9   18.68    3.37
  -5   2 -10  609.62   16.34
   5  -2  10  597.14   15.92
  -5   1  13   -0.68    3.14
   5  -1 -13    0.79    3.55
  -5   1  12  146.96    5.29
   5  -1 -12  143.37    5.71
  -5   1  11   20.12    3.10
   5  -1 -11   26.89    3.71
  -5   1  10   31.05    3.18
   5  -1 -10   33.13    3.44
  -5   1   9   67.20    3.74
   5  -1  -9   71.25    3.93
  -5   1   8   52.64    3.33
   5  -1  -8   54.46    3.37
  -5   1   7  191.58    6.09
   5  -1  -7  193.36    6.13
  -5   1   6   28.70    2.61
   5  -1  -6   24.73    2.61
  -5   1   5   23.41    2.46
   5  -1  -5   21.40    2.46
  -5   1   4   27.53    2.38
   5  -1  -4   29.46    2.31
  -5   1   3   14.56    1.78
   5  -1  -3   13.46    1.97
   5  -1  -3   15.58    1.93
   5  -1  -2   27.19    1.82
   5  -1  -2   31.20    1.93
   5  -1  -1   -0.42    1.32
   5  -1  -1    0.00    1.29
   5  -1   0    2.42    1.10
   5  -1   0    0.04    1.10
   5  -1   1   96.51    2.87
   5  -1   1   92.05    2.72
  -5   1  -2    0.00    0.98
   5  -1   2    1.89    1.17
   5  -1   2    2.91    1.17
  -5   1  -3    5.37    1.25
   5  -1   3    5.82    1.47
  -5   1  -4  237.12    6.47
   5  -1   4  254.02    6.96
  -5   1  -5   89.33    3.21
   5  -1   5   95.60    3.37
  -5   1  -6   -0.26    2.38
   5  -1   6    0.72    2.23
  -5   1  -7   22.35    2.99
   5  -1   7   27.42    2.84
  -5   1  -8    3.18    3.37
   5  -1   8    4.01    2.87
  -5   1  -9   10.89    3.59
   5  -1   9    4.95    3.25
  -5   1 -10    1.85    4.24
  -5   0  14   74.05    4.01
   5   0 -14   69.47    4.65
  -5   0  13   25.38    3.37
   5   0 -13   27.72    4.05
  -5   0  12   18.04    3.14
   5   0 -12   25.11    3.74
  -5   0  11   32.30    3.52
   5   0 -11   37.44    3.90
  -5   0  10  643.66   17.17
   5   0 -10  681.10   18.23
  -5   0   9  258.14    7.68
   5   0  -9  271.68    8.09
  -5   0   8  433.39   11.87
   5   0  -8  435.66   11.99
  -5   0   7  359.38   10.02
   5   0  -7  354.05    9.91
  -5   0   6 2076.57   53.10
   5   0  -6 2067.49   52.91
  -5   0   5 4258.27  108.27
   5   0  -5 4299.87  109.26
  -5   0   4 1339.88   34.34
   5   0  -4 1319.84   33.88
  -5   0   3  933.34   23.98
   5   0  -2 1423.84   36.57
   5   0  -2 1361.82   35.02
  -5   0  -3 1642.80   43.30
   5   0   3 1755.12   46.40
  -5   0  -4 5124.30  131.42
   5   0   4 5165.90  132.66
  -5   0  -5 4621.32  117.99
   5   0   5 4659.14  119.05
  -5   0  -6 2959.61   75.52
   5   0   6 2894.19   73.90
  -5   0  -7 1659.82   42.58
   5   0   7 1687.43   43.26
  -5   0  -8  443.60   12.14
   5   0   8  436.42   11.80
  -5   0  -9  536.26   14.60
   5   0   9  532.10   14.26
  -5  -1  14    5.33    3.59
   5   1 -14    6.24    4.20
  -5  -1  13    3.03    3.14
   5   1 -13    3.18    3.44
  -5  -1  12    6.32    3.03
   5   1 -12    5.75    3.63
  -5  -1  11   11.04    3.29
   5   1 -11    4.31    3.29
  -5  -1  10    1.59    2.95
   5   1 -10   -4.92    3.21
  -5  -1   9   10.82    2.80
   5   1  -9   14.14    2.95
  -5  -1   8    3.52    2.57
   5   1  -8    3.18    2.95
  -5  -1   7  135.39    4.65
   5   1  -7  144.31    4.88
  -5  -1   6   37.10    2.61
   5   1  -6   30.14    2.69
  -5  -1   5    0.04    1.89
   5   1  -5   -1.02    2.23
  -5  -1   4   68.79    2.50
   5   1  -4   70.11    2.72
  -5  -1   3  345.09    9.08
   5   1  -3  355.75    9.42
  -5  -1  -4   64.97    2.27
   5   1   4   70.98    2.31
  -5  -1  -5  162.09    4.73
   5   1   5  156.64    4.54
  -5  -1  -6  121.21    4.01
   5   1   6  119.54    3.90
  -5  -1  -7   22.35    2.57
   5   1   7   24.09    2.57
  -5  -1  -8  185.08    6.01
   5   1   8  189.54    5.98
  -5  -1  -9   22.05    3.90
   5   1   9   23.67    3.55
  -5  -2  14  177.21    5.94
   5   2 -14  172.94    6.20
  -5  -2  13  248.58    7.49
   5   2 -13  256.21    7.94
  -5  -2  12  312.03    9.11
   5   2 -12  323.98    9.49
  -5  -2  11 1037.34   27.04
   5   2 -11 1046.04   27.34
  -5  -2  10  349.02    9.91
   5   2 -10  349.44   10.06
  -5  -2   9  583.91   15.58
   5   2  -9  558.57   15.01
  -5  -2   8  866.03   22.61
   5   2  -8  915.57   23.90
  -5  -2   7 2223.68   56.84
   5   2  -7 2263.01   57.82
  -5  -2   6 6587.84  167.19
   5   2  -6 6996.27  177.52
  -5  -2   5 2278.52   58.09
   5   2  -5 2465.34   62.85
  -5  -2   4 2887.76   73.59
   5   2  -4 3049.24   77.72
  -5  -2   3 3024.28   77.53
   5   2  -3 3099.54   79.45
  -5  -2  -4   33.92    1.74
  -5  -2  -4   30.44    1.59
  -5  -2  -5  218.89    6.13
  -5  -2  -5  215.41    6.01
   5   2   5  219.99    6.13
  -5  -2  -6   44.59    2.69
  -5  -2  -6   42.92    2.61
   5   2   6   48.22    2.61
  -5  -2  -7   12.86    2.76
  -5  -2  -7   14.82    2.57
   5   2   7   15.73    2.57
  -5  -2  -8  279.96    8.24
   5   2   8  253.53    7.56
  -5  -3  14  202.10    6.47
   5   3 -14  222.37    7.30
  -5  -3  13   68.11    4.08
   5   3 -13   81.04    4.77
  -5  -3  12   17.70    3.25
   5   3 -12   26.96    3.48
  -5  -3  11   40.54    3.48
   5   3 -11   37.55    3.67
  -5  -3  10   52.72    3.44
   5   3 -10   53.66    3.55
  -5  -3   9  101.96    4.27
   5   3  -9   92.50    4.05
  -5  -3   8   66.86    3.59
   5   3  -8   67.50    3.40
  -5  -3   7    4.92    2.61
   5   3  -7    4.73    2.46
  -5  -3   6   21.40    2.38
   5   3  -6   25.60    2.38
  -5  -3   5   52.42    2.46
   5   3  -5   61.61    2.84
  -5  -3   4   64.78    2.53
   5   3  -4   64.67    2.65
  -5  -3   3    0.23    1.10
   5   3  -3   -0.87    1.21
  -5  -3   2    4.16    0.61
  -5  -3  -4  201.42    5.63
  -5  -3  -4  200.09    5.60
  -5  -3  -5    6.13    2.08
  -5  -3  -5    5.41    2.00
  -5  -3  -6   11.80    2.57
  -5  -3  -6   10.93    2.53
   5   3   6   10.40    2.34
  -5  -3  -7    6.92    3.14
  -5  -3  -7    3.37    2.95
   5   3   7    3.97    2.72
  -5  -3  -8   -3.44    4.05
  -5  -3  -8   -0.53    3.82
   5   3   8    6.88    3.59
  -5  -4  14  848.63   22.24
   5   4 -14  950.36   25.04
  -5  -4  13 1074.40   27.91
   5   4 -13 1137.18   29.61
  -5  -4  12 1680.62   43.23
   5   4 -12 1646.58   42.39
  -5  -4  11  955.28   24.96
   5   4 -11  953.38   25.00
  -5  -4  10  921.24   24.09
   5   4 -10  939.39   24.62
  -5  -4   9 1226.05   31.73
   5   4  -9 1269.92   32.79
  -5  -4   8  916.32   23.86
   5   4  -8  917.84   23.94
  -5  -4   7 1398.88   36.00
   5   4  -7 1473.38   37.86
  -5  -4   6  504.49   13.43
   5   4  -6  549.11   14.56
  -5  -4   5  620.59   16.19
   5   4  -5  667.10   17.43
  -5  -4   4  246.23    6.77
   5   4  -4  248.46    6.88
  -5  -4   3 1496.82   38.38
   5   4  -3 1488.13   38.20
  -5  -4   2 2735.73   70.87
  -5  -4   2 2815.91   72.91
   5   4  -2 2686.57   69.66
  -5  -4  -3 2186.24   56.88
  -5  -4  -3 2147.67   55.82
  -5  -4  -4  847.49   22.05
  -5  -4  -4  843.33   21.97
  -5  -4  -5  470.83   12.56
  -5  -4  -5  453.81   12.10
  -5  -4  -6   47.27    3.40
  -5  -4  -6   49.54    3.29
  -5  -4  -7  344.82    9.91
  -5  -4  -7  333.89    9.57
  -5  -5  14   15.35    3.82
   5   5 -14   14.14    3.97
  -5  -5  13   -0.68    3.33
   5   5 -13   -1.66    3.52
  -5  -5  12   47.23    3.93
   5   5 -12   38.01    3.97
  -5  -5  11   70.11    3.90
   5   5 -11   66.45    4.12
  -5  -5  10  154.22    5.63
   5   5 -10  166.55    5.86
  -5  -5   9   16.11    2.95
   5   5  -9   16.90    2.80
  -5  -5   8    6.43    2.91
   5   5  -8    7.75    2.84
  -5  -5   7  142.35    4.99
   5   5  -7  139.28    4.73
  -5  -5   6   44.44    2.87
   5   5  -6   43.98    2.95
  -5  -5   5   22.39    2.34
   5   5  -5   23.79    2.50
  -5  -5   4   35.28    2.31
   5   5  -4   39.86    2.42
  -5  -5   3    7.90    1.70
   5   5  -3    5.41    1.70
  -5  -5   2   12.40    1.47
  -5  -5   2    8.85    1.55
  -5  -5   1    3.44    1.44
  -5  -5   1    5.52    1.36
  -5  -5   0    4.35    1.36
  -5  -5   0    6.39    1.40
  -5  -5  -1    1.21    1.44
  -5  -5  -1    0.34    1.51
  -5  -5  -2    7.37    1.70
  -5  -5  -2    7.98    1.74
  -5  -5  -3    8.66    1.97
  -5  -5  -3    8.81    2.16
  -5  -5  -4    9.08    2.34
  -5  -5  -4   12.48    2.61
  -5  -5  -5    9.08    3.03
  -5  -5  -5   14.41    2.91
  -5  -5  -6   22.69    3.44
  -5  -5  -6   19.51    3.52
  -5  -6  14  166.36    6.01
   5   6 -14  167.38    6.47
  -5  -6  13  357.60   10.21
   5   6 -13  338.05    9.87
  -5  -6  12  270.59    8.17
   5   6 -12  271.83    8.28
  -5  -6  11  393.30   11.08
   5   6 -11  394.44   11.23
  -5  -6  10 1043.39   27.12
   5   6 -10 1081.96   28.21
  -5  -6   9  743.50   19.63
   5   6  -9  768.46   20.27
  -5  -6   8 1693.85   43.49
   5   6  -8 1708.60   43.87
  -5  -6   7  760.14   19.93
   5   6  -7  766.56   20.16
  -5  -6   6  536.63   14.37
   5   6  -6  552.52   14.67
  -5  -6   5    6.73    2.57
   5   6  -5    7.49    2.38
  -5  -6   4  205.01    5.98
   5   6  -4  206.41    6.09
  -5  -6   3  294.26    8.02
  -5  -6   3  288.10    7.90
   5   6  -3  273.50    7.60
  -5  -6   2  145.71    4.42
  -5  -6   2  153.77    4.58
  -5  -6   1   91.07    3.18
  -5  -6   1  100.94    3.33
  -5  -6   0  510.92   13.46
  -5  -6   0  519.99   13.65
  -5  -6  -1  938.64   24.32
  -5  -6  -1  993.85   25.72
  -5  -6  -2 1294.88   33.39
  -5  -6  -2 1254.03   32.33
  -5  -6  -3  516.21   13.73
  -5  -6  -3  505.24   13.43
  -5  -6  -4  691.31   18.23
  -5  -6  -4  673.91   17.74
  -5  -7  13   10.93    3.63
   5   7 -13    9.23    3.78
  -5  -7  12   -4.58    3.59
   5   7 -12    0.04    3.78
  -5  -7  11   50.94    3.93
   5   7 -11   46.78    4.08
  -5  -7  10    1.51    3.55
   5   7 -10   15.16    3.52
  -5  -7   9   -4.54    3.14
   5   7  -9    3.29    3.52
  -5  -7   8   48.78    3.55
   5   7  -8   50.41    3.48
  -5  -7   7   56.01    3.71
   5   7  -7   64.37    3.44
  -5  -7   6   13.12    3.06
   5   7  -6   15.62    2.69
  -5  -7   5   52.26    3.14
   5   7  -5   48.22    3.03
  -5  -7   4    5.22    2.65
   5   7  -4    7.37    2.38
  -5  -7   3    3.14    2.46
  -5  -7   3    4.80    2.34
   5   7  -3    7.90    2.38
  -5  -7   2    4.01    2.34
  -5  -7   2    4.20    2.12
  -5  -7   1   17.55    2.34
  -5  -7   1   11.42    2.19
  -5  -7   0    6.54    2.38
  -5  -7   0    4.05    2.19
  -5  -7  -1    4.42    2.65
  -5  -7  -1    4.16    2.38
  -5  -7  -2    3.55    2.91
  -5  -7  -2   -0.23    2.80
  -5  -7  -3    4.20    3.25
  -5  -7  -3    2.00    3.10
  -5  -7  -4   -1.93    3.86
  -5  -7  -4    6.54    3.63
  -5  -8  12   13.92    3.55
   5   8 -12    7.41    3.82
  -5  -8  11   27.68    3.59
   5   8 -11   29.76    4.01
  -5  -8  10   18.34    3.59
   5   8 -10   15.85    3.74
  -5  -8   9  606.97   16.30
   5   8  -9  581.64   15.69
  -5  -8   8   86.00    4.24
   5   8  -8   87.74    4.27
  -5  -8   7  259.01    7.90
   5   8  -7  269.90    8.06
  -5  -8   6  403.51   11.23
   5   8  -6  401.25   11.08
  -5  -8   5 1364.46   35.17
   5   8  -5 1359.17   34.98
  -5  -8   4 1710.49   43.87
  -5  -8   4 1693.10   43.41
   5   8  -4 1647.34   42.24
  -5  -8   3 1492.29   38.35
  -5  -8   3 1505.52   38.73
   5   8  -3 1420.81   36.53
  -5  -8   2 1018.81   26.43
  -5  -8   2  998.01   25.83
  -5  -8   1  300.54    8.55
  -5  -8   1  275.80    7.87
  -5  -8   0 1303.20   33.58
  -5  -8   0 1217.35   31.43
  -5  -8  -1  989.69   25.72
  -5  -8  -1  961.70   25.00
  -5  -8  -2  816.11   21.44
  -5  -8  -2  821.78   21.56
  -5  -9  11   73.82    4.24
   5   9 -11   88.76    4.80
  -5  -9  10   39.75    3.97
   5   9 -10   42.89    4.24
  -5  -9   9    8.02    3.90
   5   9  -9   10.48    3.82
  -5  -9   8   84.90    4.39
   5   9  -8   83.12    4.54
  -5  -9   7   68.90    4.12
   5   9  -7   71.40    4.27
  -5  -9   6   10.10    3.55
   5   9  -6   10.29    3.18
  -5  -9   5   11.23    3.52
  -5  -9   5   15.47    2.99
   5   9  -5   18.57    3.29
  -5  -9   4   -3.78    3.37
  -5  -9   4    4.50    3.06
   5   9  -4    1.17    3.03
  -5  -9   3   35.89    3.37
  -5  -9   3   31.39    3.52
   5   9  -3   32.03    3.21
  -5  -9   2   81.91    4.01
  -5  -9   2   84.03    4.08
  -5  -9   1   63.38    3.86
  -5  -9   1   69.24    4.12
  -5  -9   0    8.40    3.67
  -5  -9   0    8.06    3.40
  -5 -10   9  116.55    5.18
   5  10  -9  101.65    5.11
  -5 -10   8  267.03    8.17
   5  10  -8  260.90    8.13
  -5 -10   7  365.92   10.48
   5  10  -7  357.91   10.48
  -5 -10   6  755.98   19.93
   5  10  -6  744.25   19.82
  -5 -10   5 1274.46   32.98
  -5 -10   5 1280.89   33.05
   5  10  -5 1204.87   31.31
  -5 -10   4  662.19   17.62
  -5 -10   4  651.22   17.24
   5  10  -4  599.41   16.22
  -5 -10   3 1044.52   27.08
  -5 -10   3 1034.69   26.93
  -5 -10   2  737.82   19.63
  -5 -10   2  687.15   18.19
   6 -10  -3  186.21    6.58
   6 -10  -3  201.49    6.47
   6 -10  -2  212.91    6.85
   6 -10  -2  225.70    7.37
   6 -10  -1  588.07   15.92
   6 -10  -1  600.55   16.00
   6 -10   0  327.92    9.61
   6 -10   0  325.80    9.23
   6 -10   1  207.05    6.69
   6 -10   1  193.02    6.58
  -6  10  -2   41.79    3.29
   6 -10   2   49.77    3.67
   6 -10   2   47.65    4.05
  -6  10  -3  225.39    6.85
   6 -10   3  254.55    7.94
   6 -10   3  260.00    7.83
  -6  10  -4  176.31    6.09
   6 -10   4  203.50    6.66
   6 -10   4  194.16    6.81
   6  -9  -5   -2.23    3.33
   6  -9  -5   -1.40    2.95
   6  -9  -4    2.57    3.29
   6  -9  -4   -2.19    2.99
   6  -9  -3    4.84    3.29
   6  -9  -3    5.33    3.29
   6  -9  -2    1.70    3.48
   6  -9  -2    4.95    3.14
   6  -9  -1   18.08    3.48
   6  -9  -1   17.62    2.87
   6  -9   0    5.60    3.40
   6  -9   0    3.06    3.25
   6  -9   1    9.98    3.25
   6  -9   1   11.76    2.91
  -6   9  -2   -0.64    2.99
   6  -9   2    7.49    3.14
   6  -9   2    0.91    3.21
  -6   9  -3   25.68    2.99
   6  -9   3   34.72    3.29
   6  -9   3   27.76    3.52
  -6   9  -4   14.82    3.37
   6  -9   4   13.95    3.44
   6  -9   4    9.45    3.63
  -6   9  -5   -1.89    3.48
   6  -9   5   -0.42    3.37
   6  -9   5   -4.12    3.78
  -6   9  -6   24.77    3.74
   6  -9   6   27.91    3.78
   6  -9   6   29.65    4.16
   6  -8  -7  652.73   17.47
   6  -8  -7  617.94   16.41
   6  -8  -6  239.73    7.68
   6  -8  -6  240.79    7.41
   6  -8  -5   71.10    4.31
   6  -8  -5   65.50    3.86
   6  -8  -4   25.83    3.37
   6  -8  -4   22.96    2.95
   6  -8  -3  118.79    4.80
   6  -8  -3  134.44    4.92
   6  -8  -2  955.65   25.07
   6  -8  -2  984.77   25.64
   6  -8  -1   69.28    3.74
   6  -8  -1   70.45    4.08
   6  -8   0  129.15    5.07
   6  -8   0  127.33    4.69
  -6   8  -1  718.16   18.87
   6  -8   1  766.94   20.35
   6  -8   1  821.02   21.52
  -6   8  -2 1358.03   34.98
   6  -8   2 1496.45   38.61
   6  -8   2 1528.21   39.33
  -6   8  -3 2216.50   56.61
   6  -8   3 2582.95   65.92
   6  -8   3 2518.28   64.44
  -6   8  -4 1303.95   33.66
   6  -8   4 1511.20   38.80
   6  -8   4 1484.72   38.35
  -6   8  -5 1346.31   34.75
   6  -8   5 1520.65   39.07
   6  -8   5 1493.42   38.54
  -6   8  -6 1242.69   32.11
   6  -8   6 1446.53   37.25
  -6   8  -7 1155.71   29.91
   6  -8   7 1348.96   34.75
  -6   7   8   26.21    3.40
   6  -7  -8   31.58    4.01
   6  -7  -8   36.08    3.52
  -6   7   7    9.79    3.14
   6  -7  -7    7.90    3.71
   6  -7  -7   15.24    3.29
   6  -7  -6   33.17    3.18
   6  -7  -6   35.40    3.86
   6  -7  -5    3.21    3.14
   6  -7  -5   -1.32    2.91
   6  -7  -4   28.78    2.95
   6  -7  -4   31.50    3.25
   6  -7  -3    4.05    3.25
   6  -7  -3    2.38    2.87
   6  -7  -2   56.27    3.71
   6  -7  -2   59.68    3.48
   6  -7  -1   16.00    3.10
   6  -7  -1    9.34    2.80
   6  -7   0    2.76    3.06
   6  -7   0    2.69    2.69
  -6   7  -1   13.54    2.87
   6  -7   1   10.51    2.72
   6  -7   1   15.77    3.37
  -6   7  -2   10.25    2.84
   6  -7   2   11.08    3.25
   6  -7   2   10.29    2.69
  -6   7  -3   59.26    3.25
   6  -7   3   62.74    3.67
   6  -7   3   72.91    3.90
  -6   7  -4   -0.26    2.91
   6  -7   4   -0.19    2.95
   6  -7   4    2.72    3.25
  -6   7  -5    0.79    3.48
   6  -7   5    0.95    3.25
   6  -7   5    9.42    3.14
  -6   7  -6  238.02    7.30
   6  -7   6  258.14    7.87
  -6   7  -7   65.99    4.08
   6  -7   7   75.52    4.01
  -6   6   9   77.15    4.27
   6  -6  -9   82.03    4.61
   6  -6  -9   66.63    4.16
  -6   6   8  446.25   12.25
   6  -6  -8  419.78   11.53
   6  -6  -8  443.98   12.33
  -6   6   7  335.25    9.64
   6  -6  -7  293.62    8.70
   6  -6  -7  312.37    9.15
  -6   6   6  718.54   19.02
   6  -6  -6  659.92   17.66
   6  -6  -6  637.23   17.02
   6  -6  -5  886.07   23.14
   6  -6  -5  876.99   23.11
   6  -6  -4 1776.68   45.57
   6  -6  -4 1826.97   46.93
   6  -6  -3 4341.47  110.47
   6  -6  -3 4299.87  109.33
   6  -6  -2  939.01   24.51
   6  -6  -2  943.55   24.58
   6  -6  -1 1108.06   28.70
   6  -6  -1 1116.00   28.93
   6  -6   0 1279.75   33.05
   6  -6   0 1262.73   32.64
  -6   6  -1  986.66   25.60
   6  -6   1 1099.36   28.51
   6  -6   1 1055.87   27.38
  -6   6  -2 1737.35   44.51
   6  -6   2 1956.31   50.11
   6  -6   2 1979.76   50.71
  -6   6  -3  355.56    9.91
   6  -6   3  425.07   11.65
   6  -6   3  413.73   11.42
  -6   6  -4  570.29   15.24
   6  -6   4  678.83   18.00
   6  -6   4  650.09   17.21
  -6   6  -5  481.04   13.16
   6  -6   5  548.73   14.71
  -6   6  -6  637.98   17.02
   6  -6   6  751.82   19.74
  -6   6  -7  410.70   11.35
   6  -6   7  480.66   13.05
  -6   6  -8  931.45   24.32
   6  -6   8 1049.44   27.23
  -6   5  10    7.83    3.55
   6  -5 -10    2.99    3.55
   6  -5 -10    6.05    3.97
  -6   5   9   18.91    3.25
   6  -5  -9   17.43    3.74
   6  -5  -9   16.60    3.10
  -6   5   8   11.65    3.06
   6  -5  -8    7.03    2.95
   6  -5  -8   14.52    3.33
  -6   5   7   -2.46    3.06
   6  -5  -7   -1.97    3.40
   6  -5  -7    0.00    3.14
  -6   5   6   16.30    3.14
   6  -5  -6   29.27    3.52
   6  -5  -6   24.85    3.18
  -6   5   5   11.16    2.95
   6  -5  -5   10.97    3.18
   6  -5  -5   10.97    2.76
   6  -5  -4   73.14    3.63
   6  -5  -4   71.10    3.40
   6  -5  -3   56.92    3.18
   6  -5  -3   51.02    3.18
   6  -5  -2    3.14    2.53
   6  -5  -2    1.10    2.46
   6  -5  -1   85.35    3.63
   6  -5  -1   82.14    3.63
   6  -5   0   -1.59    2.53
   6  -5   0    0.95    2.42
  -6   5  -1    3.44    2.31
   6  -5   1    2.31    2.53
   6  -5   1   -1.32    2.34
  -6   5  -2   16.34    2.53
   6  -5   2   18.72    2.80
   6  -5   2   17.09    2.76
  -6   5  -3    6.77    2.57
   6  -5   3    6.66    2.72
   6  -5   3    5.11    2.87
  -6   5  -4   34.30    3.06
   6  -5   4   37.29    3.25
   6  -5   4   37.67    3.06
  -6   5  -5    6.01    2.95
   6  -5   5    6.62    3.10
  -6   5  -6    5.60    3.10
   6  -5   6    4.95    3.18
  -6   5  -7    3.78    3.18
   6  -5   7    2.12    3.52
  -6   5  -8   29.16    3.55
   6  -5   8   27.53    3.52
  -6   4  11 1182.94   30.59
   6  -4 -11 1232.48   31.99
  -6   4  10  868.67   22.69
   6  -4 -10  845.23   22.35
   6  -4 -10  849.01   22.20
  -6   4   9  990.82   25.83
  -6   4   8  543.44   14.71
   6  -4  -8  500.71   13.61
   6  -4  -8  507.14   13.92
  -6   4   7  400.49   11.12
   6  -4  -7  376.40   10.66
   6  -4  -7  360.89   10.06
  -6   4   6  814.59   21.40
   6  -4  -6  785.85   20.76
   6  -4  -6  779.80   20.57
  -6   4   5 1162.52   30.10
   6  -4  -5 1121.67   29.08
   6  -4  -5 1075.91   27.99
  -6   4   4 2631.36   67.16
   6  -4  -4 2268.31   58.01
   6  -4  -4 2230.87   57.07
   6  -4  -3 1310.01   33.73
   6  -4  -3 1280.51   33.05
   6  -4  -2 1314.17   33.81
   6  -4  -2 1310.76   33.81
   6  -4  -1 1112.97   28.74
   6  -4  -1 1127.35   29.16
   6  -4   0 1753.98   44.93
   6  -4   0 1749.07   44.81
   6  -4   1 1923.79   49.20
   6  -4   1 1981.27   50.68
  -6   4  -2  802.11   20.84
   6  -4   2  878.51   22.84
   6  -4   2  903.09   23.41
  -6   4  -3  354.69    9.68
   6  -4   3  414.10   11.31
   6  -4   3  401.25   10.93
  -6   4  -4   63.27    3.18
   6  -4   4   65.95    3.25
  -6   4  -5  406.16   11.08
   6  -4   5  465.54   12.56
  -6   4  -6  315.32    8.96
   6  -4   6  353.41    9.83
  -6   4  -7  180.13    6.16
   6  -4   7  198.09    6.32
  -6   4  -8  122.95    5.33
   6  -4   8  139.43    5.26
  -6   3  12  179.52    6.05
   6  -3 -12  189.01    6.58
  -6   3  11   34.91    3.74
   6  -3 -11   26.21    4.16
  -6   3  10    6.39    3.37
   6  -3 -10    8.28    3.71
  -6   3   9  102.79    4.46
   6  -3  -9   94.62    4.73
  -6   3   8   40.20    3.44
   6  -3  -8   43.04    3.59
  -6   3   7  308.93    8.89
   6  -3  -7  308.29    8.96
   6  -3  -7  279.36    8.21
  -6   3   6   39.29    3.14
   6  -3  -6   34.07    3.14
   6  -3  -6   42.09    3.44
  -6   3   5   41.83    2.95
   6  -3  -5   37.52    3.21
   6  -3  -5   46.48    3.18
  -6   3   4  453.81   12.25
   6  -3  -4  428.85   11.72
   6  -3  -4  437.55   11.95
   6  -3  -3    2.91    2.31
   6  -3  -3    2.76    2.34
   6  -3  -2  180.28    5.48
   6  -3  -2  175.70    5.41
   6  -3  -1   53.78    2.80
   6  -3  -1   60.39    2.91
   6  -3   0    1.32    2.08
   6  -3   0    0.57    2.04
   6  -3   1    3.90    2.04
   6  -3   1    5.37    2.00
  -6   3  -2   17.40    2.00
   6  -3   2   18.42    2.12
   6  -3   2   23.60    2.31
  -6   3  -3  220.14    6.28
   6  -3   3  244.11    6.96
   6  -3   3  259.09    7.34
  -6   3  -4  102.83    3.67
   6  -3   4  112.28    4.05
  -6   3  -5   17.89    2.57
   6  -3   5   24.09    2.72
  -6   3  -6   25.79    3.06
   6  -3   6   24.28    3.03
  -6   3  -7    3.48    3.29
   6  -3   7    4.01    3.18
  -6   3  -8    1.59    3.71
   6  -3   8    7.71    3.40
  -6   2  13   40.84    4.20
   6  -2 -13   53.10    4.42
  -6   2  12  790.77   20.84
   6  -2 -12  804.38   21.37
  -6   2  11  669.75   17.85
   6  -2 -11  686.01   18.38
  -6   2  10 1327.40   34.26
   6  -2 -10 1419.68   36.72
  -6   2   9 1139.07   29.61
   6  -2  -9 1141.72   29.72
  -6   2   8  777.53   20.50
   6  -2  -8  772.99   20.42
  -6   2   7 1391.69   35.89
   6  -2  -7 1335.72   34.49
  -6   2   6  997.63   25.91
   6  -2  -6  964.35   25.11
  -6   2   5 2505.04   63.95
   6  -2  -5 2371.55   60.62
   6  -2  -5 2284.57   58.47
  -6   2   4  331.93    9.11
   6  -2  -4  318.54    8.85
   6  -2  -4  305.64    8.62
   6  -2  -3  544.95   14.41
   6  -2  -3  531.72   14.07
   6  -2  -2  188.86    5.56
   6  -2  -2  186.63    5.48
   6  -2  -1 1404.55   36.00
   6  -2  -1 1410.22   36.15
   6  -2   0 1934.75   49.58
   6  -2   0 1979.76   50.71
   6  -2   1 1775.16   45.57
   6  -2   1 1871.98   48.03
   6  -2   2 1773.27   45.57
   6  -2   2 1783.86   45.80
  -6   2  -3   71.63    2.61
   6  -2   3   84.26    2.95
   6  -2   3   83.88    2.91
  -6   2  -4 2477.44   63.46
   6  -2   4 2675.98   68.45
  -6   2  -5 1450.69   37.25
   6  -2   5 1511.57   38.80
  -6   2  -6  568.02   14.98
   6  -2   6  623.99   16.34
  -6   2  -7  306.02    8.70
   6  -2   7  320.16    8.92
  -6   2  -8   21.25    3.86
   6  -2   8   19.21    3.37
  -6   1  13   -1.21    3.25
   6  -1 -13    2.65    4.01
  -6   1  12    1.66    3.40
   6  -1 -12    5.79    3.86
  -6   1  11   -2.19    3.25
   6  -1 -11    1.97    3.59
  -6   1  10    0.49    3.03
   6  -1 -10   -3.21    3.67
  -6   1   9    2.69    2.91
   6  -1  -9    1.89    3.52
  -6   1   8   32.52    3.25
   6  -1  -8   31.73    3.06
  -6   1   7   30.07    2.84
   6  -1  -7   25.22    2.87
  -6   1   6   35.02    2.99
   6  -1  -6   39.86    2.99
  -6   1   5   83.35    3.37
   6  -1  -5   84.98    3.67
  -6   1   4    8.06    1.89
   6  -1  -4    4.24    2.27
   6  -1  -4    3.74    2.23
  -6   1   3  105.97    3.48
   6  -1  -3   85.88    3.21
   6  -1  -3   79.57    2.95
   6  -1  -2   67.62    2.57
   6  -1  -2   64.37    2.42
   6  -1  -1   13.92    1.36
   6  -1  -1   13.65    1.44
  -6   1  -4   50.22    2.04
   6  -1   4   54.68    2.04
   6  -1   4   59.56    2.16
  -6   1  -5    9.19    1.85
   6  -1   5    2.84    1.70
  -6   1  -6   42.54    2.69
   6  -1   6   49.62    2.57
  -6   1  -7   29.38    3.03
   6  -1   7   37.93    2.84
  -6   1  -8   37.44    3.55
   6  -1   8   42.36    3.40
  -6   0  13  290.48    8.66
   6   0 -13  290.25    8.81
  -6   0  12  323.95    9.38
   6   0 -12  316.08    9.53
  -6   0  11  812.32   21.37
   6   0 -11  856.57   22.61
  -6   0  10  212.76    6.81
   6   0 -10  214.46    6.96
  -6   0   9  237.87    7.22
   6   0  -9  258.48    7.79
  -6   0   8  246.23    7.37
   6   0  -8  258.14    7.75
  -6   0   7  323.80    9.19
   6   0  -7  331.66    9.38
  -6   0   6 3624.83   92.28
   6   0  -6 3613.48   92.01
  -6   0   5   58.01    2.72
   6   0  -5   69.77    3.21
  -6   0   4   67.32    2.76
   6   0  -4   65.16    2.87
   6   0  -4   56.42    2.61
  -6   0   3   70.38    2.38
   6   0  -3   72.42    2.65
   6   0  -3   69.47    2.46
   6   0  -2   85.20    2.57
   6   0  -2   86.00    2.57
  -6   0  -5 1499.47   40.50
   6   0   5 1642.80   44.17
  -6   0  -6 1172.73   30.48
   6   0   6 1219.24   31.69
  -6   0  -7  575.96   15.28
   6   0   7  585.04   15.43
  -6   0  -8   -0.26    3.40
   6   0   8 1432.53   36.99
  -6  -1  14   31.16    4.01
   6   1 -14   27.12    3.97
  -6  -1  13   56.84    3.93
   6   1 -13   56.65    4.31
  -6  -1  12   76.85    4.20
   6   1 -12   85.51    4.54
  -6  -1  11    8.28    3.21
   6   1 -11    6.73    3.63
  -6  -1  10   77.98    3.97
   6   1 -10   77.98    4.24
  -6  -1   9   93.03    4.05
   6   1  -9   81.31    3.93
  -6  -1   8   25.34    2.80
   6   1  -8   28.55    2.95
  -6  -1   7  183.04    5.67
   6   1  -7  187.95    5.86
  -6  -1   6   49.31    2.91
   6   1  -6   43.94    2.80
  -6  -1   5  308.63    8.40
   6   1  -5  315.85    8.62
  -6  -1   4    1.40    1.36
   6   1  -4    0.95    1.66
  -6  -1   3   37.86    1.51
   6   1  -3   37.25    1.63
   6   1  -3   36.83    1.55
   6   1   6    0.11    1.59
   6   1   7   76.24    3.25
  -6  -2  14  161.97    5.75
   6   2 -14  168.18    6.13
  -6  -2  13  150.29    5.37
   6   2 -13  150.36    5.67
  -6  -2  12  378.56   10.78
   6   2 -12  391.41   11.12
  -6  -2  11   43.60    3.52
   6   2 -11   48.94    3.86
  -6  -2  10   30.33    3.18
   6   2 -10   33.17    3.44
  -6  -2   9   54.38    3.40
   6   2  -9   60.81    3.48
  -6  -2   8  453.43   12.33
   6   2  -8  449.65   12.25
  -6  -2   7 3517.05   89.51
   6   2  -7 3711.43   94.39
  -6  -2   6  318.77    8.77
   6   2  -6  319.90    8.89
  -6  -2   5 2104.93   53.78
   6   2  -5 2212.34   56.50
  -6  -2   4 3724.29   95.30
   6   2  -4 3842.28   98.33
  -6  -3  14    8.62    3.82
   6   3 -14   11.27    3.82
  -6  -3  13   -1.82    3.37
   6   3 -13   -1.47    3.67
  -6  -3  12    9.04    3.25
   6   3 -12   10.17    3.67
  -6  -3  11    5.33    3.33
   6   3 -11    8.17    3.44
  -6  -3  10   59.53    3.78
   6   3 -10   60.74    3.97
  -6  -3   9    4.73    2.91
   6   3  -9    0.98    2.80
  -6  -3   8   19.97    2.91
   6   3  -8   22.73    2.80
  -6  -3   7   29.12    2.91
   6   3  -7   26.81    2.65
  -6  -3   6   31.58    2.34
   6   3  -6   36.61    2.57
  -6  -3   5   10.48    1.97
   6   3  -5    9.76    2.00
  -6  -3   4   36.95    1.78
   6   3  -4   43.45    1.93
  -6  -4  14  293.88    8.85
   6   4 -14  322.28    9.95
  -6  -4  13  665.59   17.70
   6   4 -13  743.50   19.85
  -6  -4  12  509.40   13.84
   6   4 -12  552.52   15.13
  -6  -4  11  512.05   13.92
   6   4 -11  543.44   14.82
  -6  -4  10 1019.94   26.55
   6   4 -10 1055.87   27.53
  -6  -4   9  815.73   21.44
   6   4  -9  875.10   22.88
  -6  -4   8 1816.38   46.59
   6   4  -8 1870.84   47.95
  -6  -4   7  202.40    6.20
   6   4  -7  203.08    6.20
  -6  -4   6  245.02    7.03
   6   4  -6  241.88    7.00
  -6  -4   5   92.16    3.21
   6   4  -5  102.83    3.48
  -6  -4   4  533.99   13.95
   6   4  -4  554.41   14.48
  -6  -5  13   31.24    3.67
   6   5 -13   30.10    4.20
  -6  -5  12   45.46    3.97
   6   5 -12   49.62    4.24
  -6  -5  11  194.87    6.47
   6   5 -11  208.04    6.77
  -6  -5  10    0.34    3.44
   6   5 -10    4.92    3.37
  -6  -5   9   -0.11    3.18
   6   5  -9    3.44    3.14
  -6  -5   8  339.57    9.64
   6   5  -8  351.29    9.83
  -6  -5   7    9.91    2.76
   6   5  -7   11.76    2.84
  -6  -5   6   29.80    2.87
   6   5  -6   32.56    2.57
  -6  -5   5   29.54    2.57
   6   5  -5   28.40    2.42
  -6  -5   4   -1.02    1.85
   6   5  -4   -0.11    1.63
  -6  -6  13  124.50    5.33
   6   6 -13  120.18    5.56
  -6  -6  12  224.37    7.15
   6   6 -12  238.93    7.83
  -6  -6  11  808.92   21.25
   6   6 -11  811.57   21.48
  -6  -6  10  944.31   24.66
   6   6 -10  930.32   24.39
  -6  -6   9 2287.97   58.54
   6   6  -9 2329.57   59.53
  -6  -6   8 1589.86   40.92
   6   6  -8 1671.54   42.92
  -6  -6   7 1515.36   38.99
   6   6  -7 1531.24   39.37
  -6  -6   6 1215.46   31.35
   6   6  -6 1223.02   31.50
  -6  -6   5 1870.84   47.95
   6   6  -5 1833.40   46.93
  -6  -6   4 1626.54   41.71
  -6  -6   4 1552.04   39.86
   6   6  -4 1547.50   39.71
  -6  -6   3  839.55   21.82
  -6  -6   3  867.16   22.50
  -6  -7  12   19.02    4.12
   6   7 -12   14.90    4.08
  -6  -7  11    5.45    3.52
   6   7 -11    3.10    3.86
  -6  -7  10    1.78    3.78
   6   7 -10    4.61    3.63
  -6  -7   9   81.46    4.42
   6   7  -9   78.66    4.46
  -6  -7   8   34.15    4.12
   6   7  -8   35.96    3.25
  -6  -7   7    7.07    3.29
   6   7  -7    5.03    2.95
  -6  -7   6   50.98    3.74
   6   7  -6   46.82    3.25
  -6  -7   5   32.71    3.33
   6   7  -5   31.39    2.95
  -6  -7   4   45.23    2.69
  -6  -7   4   39.37    2.91
   6   7  -4   40.01    2.72
  -6  -7   3   10.85    2.16
  -6  -7   3    7.15    2.53
  -6  -7   2    3.74    2.38
  -6  -7   2   -1.25    2.04
  -6  -8  11   98.40    5.07
   6   8 -11  104.49    5.37
  -6  -8  10  509.03   13.92
   6   8 -10  494.28   13.77
  -6  -8   9    5.29    3.82
   6   8  -9    1.59    3.52
  -6  -8   8    1.17    3.82
   6   8  -8   12.59    3.74
  -6  -8   7   62.78    4.24
   6   8  -7   56.46    3.59
  -6  -8   6  213.78    6.96
   6   8  -6  212.54    6.50
  -6  -8   5  691.31   18.23
  -6  -8   5  678.45   18.04
   6   8  -5  656.89   17.32
  -6  -8   4  214.24    6.85
  -6  -8   4  216.01    6.58
   6   8  -4  207.24    6.35
  -6  -8   3  250.88    7.45
  -6  -8   3  260.79    7.49
  -6  -8   2   60.55    3.67
  -6  -8   2   55.63    3.18
  -6  -8   1    0.15    3.14
  -6  -8   1   -0.34    2.69
  -6  -9   9   15.92    4.24
   6   9  -9   16.03    4.05
  -6  -9   8    2.42    4.05
   6   9  -8    5.98    4.05
  -6  -9   7   -1.93    4.16
   6   9  -7    5.52    3.90
  -6  -9   6    2.65    4.27
  -6  -9   6    2.69    3.10
   6   9  -6    3.29    3.71
  -6  -9   5    0.61    3.52
  -6  -9   5   -2.57    4.08
   6   9  -5   -2.16    3.44
  -6  -9   4   37.82    4.24
  -6  -9   4   37.14    3.59
  -6  -9   3   19.97    3.33
  -6  -9   3   17.02    3.90
  -6  -9   2    1.25    3.44
  -6  -9   2    0.30    4.05
   7  -9  -3   14.14    3.63
   7  -9  -3   22.27    3.33
   7  -9  -2   39.82    4.01
   7  -9  -2   34.60    3.21
   7  -9  -1    1.10    3.63
   7  -9  -1   -0.30    3.18
   7  -9   0   -1.17    3.71
   7  -9   0    1.25    3.21
   7  -9   1    4.27    3.67
   7  -9   1    6.85    2.95
   7  -9   2   21.56    3.82
   7  -9   2   17.02    3.33
   7  -8  -5  176.12    6.28
   7  -8  -5  168.63    5.63
   7  -8  -4  153.12    5.63
   7  -8  -4  159.40    5.56
   7  -8  -3  415.62   11.61
   7  -8  -3  423.94   11.61
   7  -8  -2   76.73    4.27
   7  -8  -2   75.79    3.90
   7  -8  -1   18.64    3.67
   7  -8  -1   25.53    3.21
   7  -8   0   13.46    3.55
   7  -8   0    9.38    3.03
   7  -8   1   68.71    4.24
   7  -8   1   72.23    3.82
   7  -8   2  293.99    8.89
   7  -8   2  300.27    8.66
  -7   8  -3   65.20    4.08
   7  -8   3   73.44    4.61
   7  -8   3   66.22    3.97
  -7   8  -4  270.13    8.24
   7  -8   4  309.05    8.89
   7  -8   4  282.84    8.74
   7  -7  -7    7.71    2.99
   7  -7  -7    4.65    3.78
   7  -7  -6   -2.19    3.63
   7  -7  -6    1.82    2.84
   7  -7  -5    3.55    3.52
   7  -7  -5    2.31    2.99
   7  -7  -4   15.43    3.03
   7  -7  -4   11.53    3.48
   7  -7  -3  134.06    5.22
   7  -7  -3  139.32    4.92
   7  -7  -2    4.65    2.91
   7  -7  -2    6.50    3.06
   7  -7  -1    2.00    2.87
   7  -7  -1    3.37    3.29
   7  -7   0   -1.70    2.76
   7  -7   0   -1.89    3.48
   7  -7   1    1.40    3.18
   7  -7   1    2.91    2.87
  -7   7  -2   33.73    3.59
   7  -7   2   27.23    3.48
   7  -7   2   33.09    3.25
  -7   7  -3   22.61    3.44
   7  -7   3   15.81    3.71
   7  -7   3    8.89    3.03
  -7   7  -4    5.14    3.52
   7  -7   4    2.99    3.97
   7  -7   4    3.59    3.10
  -7   7  -5   33.85    3.78
   7  -7   5   39.60    3.90
   7  -7   5   36.65    4.12
  -7   6   8   34.30    3.37
   7  -6  -8   31.88    3.33
   7  -6  -8   31.80    4.01
  -7   6   7   12.90    3.06
   7  -6  -7   12.06    3.10
   7  -6  -7    8.28    3.71
   7  -6  -6  244.45    7.68
   7  -6  -6  239.69    7.22
   7  -6  -5  527.18   14.41
   7  -6  -5  499.19   13.46
   7  -6  -4 1611.41   41.37
   7  -6  -4 1623.14   41.75
   7  -6  -3  374.40   10.55
   7  -6  -3  361.99   10.17
   7  -6  -2  703.41   18.68
   7  -6  -2  707.95   18.64
   7  -6  -1  906.87   23.60
   7  -6  -1  870.94   22.77
   7  -6   0 1286.18   33.17
   7  -6   0 1254.79   32.41
   7  -6   1 1386.78   35.74
   7  -6   1 1455.23   37.44
   7  -6   2  514.32   13.84
   7  -6   2  482.55   13.08
  -7   6  -3  453.81   12.40
   7  -6   3  503.73   13.61
   7  -6   3  515.83   13.84
  -7   6  -4  766.94   20.19
   7  -6   4  885.31   23.18
   7  -6   4  888.34   23.22
  -7   6  -5  492.01   13.39
   7  -6   5  561.59   15.24
   7  -6   5  609.24   16.22
  -7   6  -6  359.95   10.25
   7  -6   6  423.18   11.80
   7  -6   6  419.40   12.03
  -7   5  10   15.32    3.55
   7  -5 -10   10.17    3.40
   7  -5 -10   21.22    4.31
  -7   5   9    3.18    3.40
   7  -5  -9   -0.42    3.71
   7  -5  -9   -5.52    3.44
  -7   5   8   15.28    3.21
   7  -5  -8   21.44    3.90
   7  -5  -8   18.19    3.10
  -7   5   7   24.88    3.37
   7  -5  -7   18.11    3.59
   7  -5  -7   23.75    3.44
  -7   5   6   -0.91    2.91
   7  -5  -6    0.04    3.52
   7  -5  -6    0.72    2.87
   7  -5  -5    4.24    3.29
   7  -5  -5    5.48    2.76
   7  -5  -4    1.47    3.14
   7  -5  -4    2.27    2.80
   7  -5  -3   15.69    3.06
   7  -5  -3   17.47    2.91
   7  -5  -2   20.54    3.06
   7  -5  -2   20.69    2.76
   7  -5  -1   -1.59    2.80
   7  -5  -1    1.10    2.80
   7  -5   0    1.59    2.87
   7  -5   0    9.49    2.53
   7  -5   1    3.97    2.69
   7  -5   1   -1.89    2.69
   7  -5   2   43.38    3.33
   7  -5   2   43.53    3.18
  -7   5  -3   30.37    2.91
   7  -5   3   41.30    3.33
   7  -5   3   47.20    3.52
  -7   5  -4    2.69    2.80
   7  -5   4    2.69    3.18
   7  -5   4    1.78    3.21
  -7   5  -5   -0.98    3.29
   7  -5   5    3.59    3.40
   7  -5   5    1.10    3.40
  -7   5  -6   23.18    3.71
   7  -5   6   22.96    3.74
   7  -5   6   22.54    3.82
  -7   4  10  424.69   11.72
   7  -4 -10  396.71   10.97
   7  -4 -10  405.78   11.57
  -7   4   9  283.52    8.40
   7  -4  -9  248.88    7.56
   7  -4  -9  252.13    7.83
  -7   4   8  164.17    5.60
   7  -4  -8  158.42    5.86
   7  -4  -8  150.67    5.26
  -7   4   7  661.43   17.59
   7  -4  -7  618.70   16.68
   7  -4  -7  592.23   15.81
  -7   4   6  568.02   15.20
   7  -4  -6  530.58   14.45
   7  -4  -6  543.82   14.67
   7  -4  -5 1401.15   36.15
   7  -4  -5 1367.87   35.28
   7  -4  -4  592.23   15.77
   7  -4  -4  577.48   15.35
   7  -4  -3 1281.64   33.05
   7  -4  -3 1238.53   31.96
   7  -4  -2 1198.82   30.93
   7  -4  -2 1207.14   31.16
   7  -4  -1 2421.47   61.83
   7  -4  -1 2501.26   63.87
   7  -4   0 3131.31   79.83
   7  -4   0 3187.28   81.23
   7  -4   1 1754.36   44.97
   7  -4   1 1793.69   45.91
   7  -4   2 1390.18   35.78
   7  -4   2 1440.10   36.99
  -7   4  -3  551.00   14.60
   7  -4   3  626.64   16.53
   7  -4   3  647.44   17.02
  -7   4  -4  912.16   23.67
   7  -4   4 1058.90   27.38
   7  -4   4 1058.90   27.42
  -7   4  -5  431.88   11.72
   7  -4   5  512.81   13.80
   7  -4   5  509.78   13.65
  -7   4  -6  533.99   14.37
   7  -4   6  638.36   16.94
   7  -4   6  628.15   16.68
  -7   4  -7  134.29    5.52
   7  -4   7  160.38    5.98
  -7   3  11    5.26    3.52
   7  -3 -11    3.14    3.90
  -7   3  10    7.41    3.37
   7  -3 -10    9.57    3.90
  -7   3   9   11.46    3.37
   7  -3  -9    9.19    3.74
   7  -3  -9   11.76    3.18
  -7   3   8   13.39    3.21
   7  -3  -8    5.03    3.33
   7  -3  -8    7.45    3.14
  -7   3   7   30.37    3.29
   7  -3  -7   27.46    3.29
   7  -3  -7   27.91    3.37
  -7   3   6   16.45    3.25
   7  -3  -6   22.24    3.29
   7  -3  -6   23.11    3.06
  -7   3   5  120.07    4.46
   7  -3  -5  121.21    4.46
   7  -3  -5  117.61    4.50
   7  -3  -4    2.53    2.50
   7  -3  -4    3.78    2.69
   7  -3  -3  138.83    4.65
   7  -3  -3  139.93    4.88
   7  -3  -2   36.12    2.87
   7  -3  -2   39.29    2.76
   7  -3  -1    1.63    2.16
   7  -3  -1    4.54    2.31
   7  -3   0   35.09    2.50
   7  -3   0   30.18    2.31
   7  -3   1   99.23    3.52
   7  -3   1  106.46    3.67
   7  -3   2  181.45    5.33
   7  -3   2  194.91    5.60
   7  -3   3  149.76    4.61
   7  -3   3  160.88    4.84
  -7   3  -4   -0.08    2.19
   7  -3   4   -1.44    2.42
   7  -3   4   -1.40    2.19
  -7   3  -5  113.98    4.08
   7  -3   5  133.53    4.58
   7  -3   5  141.70    4.61
  -7   3  -6   -5.45    2.87
   7  -3   6    1.47    2.87
   7  -3   6   -3.63    2.84
  -7   3  -7   -1.59    3.52
   7  -3   7    1.21    3.33
  -7   2  12  291.88    8.70
   7  -2 -12  275.28    8.51
  -7   2  11  533.23   14.33
   7  -2 -11  526.04   14.41
  -7   2  10  396.71   11.00
   7  -2 -10  395.95   11.35
  -7   2   9  564.62   15.20
   7  -2  -9  545.33   14.98
  -7   2   8 1043.39   27.08
   7  -2  -8 1041.50   27.15
  -7   2   7 1122.81   29.08
   7  -2  -7 1003.68   26.13
   7  -2  -7 1075.16   27.91
  -7   2   6 1673.81   42.96
   7  -2  -6 1609.52   41.33
   7  -2  -6 1533.13   39.44
  -7   2   5  601.30   15.92
   7  -2  -5  566.51   15.13
   7  -2  -5  547.60   14.64
   7  -2  -4  303.15    8.55
   7  -2  -4  298.46    8.32
   7  -2  -3  332.49    9.19
   7  -2  -3  330.83    9.08
   7  -2  -2  584.28   15.32
   7  -2  -2  597.90   15.62
   7  -2  -1 1066.08   27.53
   7  -2  -1 1089.53   28.10
   7  -2   0  564.62   14.79
   7  -2   0  593.74   15.54
  -7   2  -5  392.93   10.63
  -7   2  -6    0.76    2.42
  -7   2  -7    1.63    3.25
   7  -2   7    8.51    3.14
  -7   1  12   77.34    4.35
   7  -1 -12   59.71    4.73
  -7   1  11   32.49    3.55
   7  -1 -11   31.65    4.05
  -7   1  10   72.72    3.97
   7  -1 -10   71.66    4.31
  -7   1   9   72.16    4.01
   7  -1  -9   76.43    4.20
  -7   1   8   12.18    3.03
   7  -1  -8   12.06    3.44
  -7   1   7   37.48    3.33
   7  -1  -7   32.94    3.44
  -7   1   6  125.25    4.58
   7  -1  -6  118.22    4.61
   7  -1  -6  114.51    4.27
  -7   1   5    1.36    2.46
   7  -1  -5    4.01    2.69
   7  -1  -5   -1.44    2.57
   7  -1  -4   15.58    2.53
   7  -1  -4   16.19    2.16
   7  -1  -3   20.72    2.08
   7  -1  -3   23.90    1.89
   7  -1  -2   10.40    1.44
   7  -1  -2    8.96    1.59
  -7   0  12  737.45   19.44
   7   0 -12  747.66   19.89
  -7   0  11  554.79   14.94
   7   0 -11  564.62   15.35
  -7   0  10  544.95   14.67
   7   0 -10  558.95   15.16
  -7   0   9  956.79   24.96
   7   0  -9  985.91   25.75
  -7   0   8 2005.47   51.36
   7   0  -8 2068.25   52.94
  -7   0   7 3464.86   88.23
   7   0  -7 3491.71   88.91
  -7   0   6 1321.35   34.00
   7   0  -6 1326.64   34.15
  -7   0   5 1206.01   31.05
   7   0  -5 1083.10   27.99
   7   0  -5 1181.05   30.44
  -7   0   4 1822.43   46.70
   7   0  -4 1620.87   41.56
   7   0  -4 1751.34   44.89
  -7  -1  13    5.22    3.44
   7   1 -13    3.63    4.12
  -7  -1  12    4.12    3.44
   7   1 -12    1.70    3.74
  -7  -1  11   -2.00    3.48
   7   1 -11   -2.84    3.52
  -7  -1  10    7.79    3.18
   7   1 -10   -3.93    3.71
  -7  -1   9   26.62    3.29
   7   1  -9   26.47    3.52
  -7  -1   8   16.98    3.18
   7   1  -8   20.01    3.10
  -7  -1   7   60.58    3.37
   7   1  -7   66.26    3.44
  -7  -1   6    9.38    2.46
   7   1  -6    8.92    2.57
  -7  -1   5   48.29    2.38
   7   1  -5   51.85    2.34
   7   1  -5   58.47    2.69
  -7  -1   4   28.59    1.66
   7   1  -4   22.65    1.55
   7   1  -4   22.96    1.70
  -7  -2  13  405.41   11.35
   7   2 -13  405.03   11.57
  -7  -2  12   94.92    4.42
   7   2 -12   95.72    4.88
  -7  -2  11   10.78    3.52
   7   2 -11   10.48    3.74
  -7  -2  10    7.07    3.21
   7   2 -10    4.24    3.25
  -7  -2   9   21.37    3.52
   7   2  -9   15.39    3.03
  -7  -2   8  145.86    5.14
   7   2  -8  151.01    5.26
  -7  -2   7  337.98    9.38
   7   2  -7  340.40    9.53
  -7  -2   6  146.17    4.73
   7   2  -6  147.68    4.77
  -7  -2   5   96.66    3.21
   7   2  -5  101.35    3.40
  -7  -3  13   25.98    3.93
   7   3 -13   28.85    4.12
  -7  -3  12   82.18    4.39
   7   3 -12   76.77    4.58
  -7  -3  11   36.83    3.97
   7   3 -11   39.75    3.90
  -7  -3  10   31.05    3.74
   7   3 -10   33.13    3.48
  -7  -3   9    1.59    3.14
   7   3  -9    4.73    2.95
  -7  -3   8   22.80    3.18
   7   3  -8   22.69    3.06
  -7  -3   7    4.35    2.69
   7   3  -7    3.82    2.53
  -7  -3   6    7.79    2.08
   7   3  -6   11.35    2.23
  -7  -3   5    2.12    1.63
   7   3  -5    2.34    1.63
  -7  -4  13  176.72    6.66
  -7  -4  12  291.80    8.89
   7   4 -12  324.48    9.68
  -7  -4  11  808.16   21.29
   7   4 -11  797.58   21.14
  -7  -4  10 1275.59   33.01
   7   4 -10 1324.00   34.23
  -7  -4   9 1824.33   46.86
   7   4  -9 1869.71   47.92
  -7  -4   8  688.28   18.23
   7   4  -8  709.84   18.72
  -7  -4   7  864.89   22.50
   7   4  -7  894.01   23.22
  -7  -4   6  795.68   20.69
   7   4  -6  789.26   20.50
  -7  -4   5  994.98   25.87
   7   4  -5  991.58   25.75
  -7  -5  12   20.91    3.90
   7   5 -12   19.17    4.24
  -7  -5  11    5.11    3.71
   7   5 -11    2.69    3.90
  -7  -5  10   20.35    3.78
   7   5 -10   14.37    4.05
  -7  -5   9  177.10    6.20
   7   5  -9  177.37    5.98
  -7  -5   8   65.58    4.08
   7   5  -8   66.22    3.71
  -7  -5   7    3.55    2.99
   7   5  -7    4.16    2.76
  -7  -5   6   85.96    3.52
   7   5  -6   89.59    3.40
  -7  -5   5   17.17    2.00
   7   5  -5   17.43    1.82
  -7  -6  11   92.43    4.95
   7   6 -11   88.30    5.22
  -7  -6  10  407.67   11.61
   7   6 -10  419.78   11.87
  -7  -6   9  186.97    6.58
   7   6  -9  193.02    6.39
  -7  -6   8  544.95   14.79
   7   6  -8  517.72   13.95
  -7  -6   7  573.69   15.39
   7   6  -7  566.89   15.01
  -7  -6   6 1401.90   36.12
   7   6  -6 1355.01   34.87
  -7  -6   5 1685.16   43.49
  -7  -6   5 1561.87   40.39
   7   6  -5 1656.04   42.77
  -7  -7  10    8.40    4.12
   7   7 -10   16.11    4.20
  -7  -7   9   -4.01    4.12
   7   7  -9    0.87    3.97
  -7  -7   8   16.41    4.12
   7   7  -8   12.71    3.29
  -7  -7   7   21.67    3.97
   7   7  -7   13.65    3.10
  -7  -7   6    3.14    3.33
   7   7  -6    0.57    2.65
  -7  -7   5   15.88    2.61
  -7  -7   5   18.08    3.03
   7   7  -5   16.03    2.65
  -7  -8   8  251.60    8.28
   7   8  -8  241.43    7.53
  -7  -8   7  569.16   15.54
   7   8  -7  575.59   15.43
  -7  -8   6  564.24   15.28
  -7  -8   6  616.81   16.41
   7   8  -6  550.25   14.75
  -7  -8   5   -0.38    2.91
  -7  -8   5    1.55    3.63
   7   8  -5  286.43    8.28
   8  -7  -5   41.79    3.55
   8  -7  -5   42.96    4.24
   8  -7  -4   66.18    4.80
   8  -7  -4   64.40    3.71
   8  -7  -3    3.78    3.74
   8  -7  -3    1.70    2.95
   8  -7  -2   25.11    3.74
   8  -7  -2   25.15    3.40
   8  -7  -1    7.94    3.97
   8  -7  -1    4.01    3.29
   8  -7   0    3.10    3.93
   8  -7   0    8.40    3.03
   8  -7   1   15.96    4.27
   8  -7   1   25.83    3.33
   8  -7   2   -0.98    3.97
   8  -7   2   -3.33    3.52
   8  -6  -7   72.42    4.73
   8  -6  -7   65.54    3.82
   8  -6  -6  212.65    7.22
   8  -6  -6  218.55    6.73
   8  -6  -5  359.15   10.40
   8  -6  -5  346.49    9.72
   8  -6  -4   52.04    4.50
   8  -6  -4   62.25    3.67
   8  -6  -3  241.31    7.60
   8  -6  -3  254.82    7.53
   8  -6  -2  272.59    8.36
   8  -6  -2  282.38    8.17
   8  -6  -1  473.10   13.08
   8  -6  -1  487.09   13.12
   8  -6   0  778.29   20.50
   8  -6   0  781.69   20.46
   8  -6   1  145.52    5.48
   8  -6   1  156.68    5.52
   8  -6   2  398.98   11.16
   8  -6   2  433.77   11.87
   8  -6   3  414.48   11.53
   8  -6   3  457.22   12.59
  -8   5   8    8.36    3.63
   8  -5  -8   -2.12    4.12
   8  -5  -8    3.97    3.29
   8  -5  -7    2.57    4.12
   8  -5  -7    5.60    3.10
   8  -5  -6   -2.31    4.05
   8  -5  -6    1.70    3.25
   8  -5  -5   43.11    3.90
   8  -5  -5   48.07    3.33
   8  -5  -4    2.34    3.44
   8  -5  -4    5.41    2.80
   8  -5  -3    3.93    3.40
   8  -5  -3    2.80    2.99
   8  -5  -2    3.93    3.10
   8  -5  -2    3.33    2.72
   8  -5  -1    0.49    2.84
   8  -5  -1   -2.31    3.03
   8  -5   0   28.55    3.37
   8  -5   0   22.16    2.99
   8  -5   1    4.84    3.10
   8  -5   1    2.72    3.18
   8  -5   2   31.20    3.63
   8  -5   2   43.94    3.52
   8  -5   3    7.90    3.37
   8  -5   3   10.40    3.55
   8  -5   4   -2.23    3.78
   8  -5   4   -1.17    3.78
  -8   4   9   75.03    4.16
   8  -4  -9   66.75    4.01
   8  -4  -9   72.27    4.65
  -8   4   8  291.42    8.66
   8  -4  -8  269.41    8.40
   8  -4  -8  252.36    7.60
  -8   4   7  209.28    6.77
   8  -4  -7  201.83    7.03
   8  -4  -7  179.26    5.90
   8  -4  -6  139.59    5.67
   8  -4  -6  130.96    4.77
   8  -4  -5  120.07    4.99
   8  -4  -5  118.14    4.46
   8  -4  -4  180.69    6.01
   8  -4  -4  189.62    6.01
   8  -4  -3  139.43    5.07
   8  -4  -3  146.77    4.95
   8  -4  -2  749.92   19.70
   8  -4  -2  737.82   19.29
   8  -4  -1 1167.05   30.18
   8  -4  -1 1194.28   30.78
   8  -4   0  748.79   19.59
   8  -4   0  768.83   20.08
   8  -4   1  953.76   24.77
   8  -4   1  959.44   24.85
   8  -4   2  495.41   13.24
   8  -4   2  513.94   13.65
   8  -4   3  745.01   19.55
   8  -4   3  791.15   20.65
   8  -4   4  375.42   10.40
   8  -4   4  405.78   11.08
  -8   3  10   18.27    3.71
   8  -3 -10   19.82    4.08
   8  -3 -10   17.36    3.40
  -8   3   9   31.80    3.82
  -8   3   8    8.89    3.44
   8  -3  -8    5.14    3.18
   8  -3  -8    7.53    4.01
  -8   3   7   22.92    3.37
   8  -3  -7   18.30    3.14
   8  -3  -7   18.53    3.86
  -8   3   6   14.60    3.03
   8  -3  -6   25.49    3.82
   8  -3  -6   16.11    2.80
   8  -3  -5    0.15    2.72
   8  -3  -5    4.61    3.14
   8  -3  -4    5.11    3.10
   8  -3  -4    6.73    2.80
   8  -3  -3   14.94    2.65
   8  -3  -3   10.36    2.95
   8  -3  -2    5.94    2.46
   8  -3  -2    5.26    2.76
   8  -3  -1    1.89    2.34
   8  -3  -1    1.25    2.27
   8  -3   0   35.66    2.42
   8  -3   0   39.86    2.42
  -8   2  10  197.48    6.69
  -8   2   9 1091.80   28.40
   8  -2  -9  953.76   24.85
   8  -2  -9 1038.47   27.15
  -8   2   8  817.62   21.48
   8  -2  -8  721.94   19.02
   8  -2  -8  793.42   21.03
  -8   2   7 1209.41   31.35
   8  -2  -7 1094.07   28.36
   8  -2  -7 1165.54   30.18
  -8   2   6  980.99   25.56
   8  -2  -6  887.20   23.18
   8  -2  -6  876.61   22.84
   8  -2  -5  963.60   24.96
   8  -2  -5 1004.44   26.09
   8  -2  -4  402.00   10.97
   8  -2  -4  383.47   10.40
   8  -2  -3 1280.89   32.98
   8  -2  -3 1225.29   31.54
   8  -2  -2 1220.76   31.50
   8  -2  -2 1235.50   31.96
  -8   1  11    1.74    3.86
   8  -1 -11    6.96    4.31
  -8   1  10    2.19    3.40
   8  -1 -10    0.11    3.86
  -8   1   9    9.57    3.52
   8  -1  -9    2.65    3.67
  -8   1   8   47.16    4.05
   8  -1  -8   48.71    4.01
   8  -1  -8   35.93    3.44
  -8   1   7    1.51    3.25
   8  -1  -7   -1.47    3.18
   8  -1  -7   -4.12    2.95
  -8   1   6   10.70    2.91
   8  -1  -6    2.19    3.14
   8  -1  -6    9.83    2.72
   8  -1  -5   -1.02    2.91
   8  -1  -5    0.53    2.42
   8  -1  -4   42.05    2.61
   8  -1  -4   34.87    2.31
   8  -1  -3   -0.61    1.70
   8  -1  -3    1.47    1.59
  -8   0  11   27.64    3.78
   8   0 -11   25.38    4.20
  -8   0  10  256.52    8.02
   8   0 -10  282.73    8.81
  -8   0   9  321.64    9.30
   8   0  -9  315.36    9.27
  -8   0   8 1190.88   30.86
   8   0  -8 1141.72   29.57
  -8   0   7  440.95   12.06
  -8   0   6 1172.35   30.29
   8   0  -6 1018.43   26.36
   8   0  -6 1106.92   28.59
   8   0  -5 1124.32   28.97
   8   0  -5 1228.70   31.62
  -8  -1  11   -0.57    3.59
   8   1 -11   -1.63    4.35
  -8  -1  10   -0.76    3.63
   8   1 -10    9.04    4.08
  -8  -1   9  101.81    4.80
   8   1  -9   93.52    4.54
  -8  -1   8  179.79    6.20
   8   1  -8  172.98    5.79
  -8  -1   7   58.54    3.67
   8   1  -7   51.51    3.48
  -8  -1   6    3.40    2.38
   8   1  -6    3.29    2.27
   8   1  -6    1.89    2.34
   8   1  -5    5.48    1.63
   8   1  -5    5.18    1.82
  -8  -2  11 1032.42   26.93
   8   2 -11 1129.61   29.46
  -8  -2  10  941.66   24.62
   8   2 -10  982.13   25.72
  -8  -2   9 1181.80   30.67
   8   2  -9 1199.96   31.01
  -8  -2   8   36.04    3.78
   8   2  -8   33.32    3.40
  -8  -2   7  221.76    6.81
   8   2  -7  215.49    6.54
  -8  -2   6   73.52    3.14
   8   2  -6   63.42    2.76
   8   2  -6   67.66    2.91
  -8  -3  11   58.77    4.16
   8   3 -11   55.59    4.46
  -8  -3  10  105.89    5.07
   8   3 -10  113.07    5.11
  -8  -3   9    3.40    3.93
   8   3  -9    3.37    3.59
  -8  -3   8   67.66    4.12
   8   3  -8   74.92    3.90
  -8  -3   7   21.03    2.69
   8   3  -7   23.79    2.65
  -8  -3   6   26.17    2.23
   8   3  -6   25.15    2.12
   8   3  -6   26.77    1.97
  -8  -4  11  206.79    7.00
   8   4 -11  207.01    7.45
  -8  -4  10  341.72    9.91
   8   4 -10  339.83   10.10
  -8  -4   9  128.92    5.48
   8   4  -9  135.99    5.41
  -8  -4   8  391.04   10.93
   8   4  -8  409.94   11.23
  -8  -4   7  220.70    6.54
   8   4  -7  211.67    6.20
  -8  -4   6  540.41   14.45
   8   4  -6  588.44   16.49
  -8  -5  10    6.20    4.20
   8   5 -10   10.21    4.35
  -8  -5   9    4.99    4.12
   8   5  -9   -0.30    3.82
  -8  -5   8    2.65    3.78
   8   5  -8   -3.52    3.33
  -8  -5   7   11.31    2.84
   8   5  -7   10.14    2.69
   8   5  -6    2.31    1.51
  -8  -6   9  134.82    5.98
   8   6  -9  137.85    5.60
  -8  -6   8  103.70    4.80
   8   6  -8   96.17    4.42
  -8  -6   7   -3.37    3.14
   8   6  -7  455.33   12.29
   9  -5  -5   16.03    3.52
   9  -5  -5   20.12    4.84
   9  -5  -4   18.95    4.42
   9  -5  -4   12.22    3.29
   9  -5  -3   -4.35    4.16
   9  -5  -3   -1.17    3.48
   9  -5  -2    4.16    4.05
   9  -5  -2    6.35    3.55
   9  -5  -1    9.49    4.12
   9  -5  -1    9.98    3.59
   9  -5   0   11.31    4.24
   9  -5   0    8.40    3.93
   9  -4  -6  116.67    5.86
   9  -4  -6  116.63    4.65
   9  -4  -5  216.54    6.69
   9  -4  -5  219.61    7.71
   9  -4  -4   28.59    4.16
   9  -4  -4   29.38    3.52
   9  -4  -3  350.46   10.17
   9  -4  -3  371.75   10.36
   9  -4  -2  561.21   15.13
   9  -4  -2  579.37   15.39
   9  -4  -1  538.15   14.45
   9  -4  -1  555.16   14.79
   9  -4   0  768.08   20.19
   9  -4   0  820.27   21.48
   9  -3  -7   14.79    4.88
   9  -3  -7   12.56    3.21
   9  -3  -6    1.13    3.97
   9  -3  -6   -4.12    3.25
   9  -3  -5    0.76    3.78
   9  -3  -5    0.95    3.21
   9  -3  -4    3.40    3.67
   9  -3  -4    4.39    3.06
   9  -3  -3    1.97    3.21
   9  -3  -3    4.31    2.91
   9  -3  -2   -2.87    2.99
   9  -3  -2   -1.40    2.61
  -9   2   8  255.00    8.02
   9  -2  -8  227.40    7.83
   9  -2  -8  217.83    6.85
   9  -2  -6  306.32    9.08
   9  -2  -6  279.78    8.13
   9  -2  -5   89.44    4.54
   9  -2  -5   75.60    3.71
   9  -2  -4  332.80    9.30
   9  -2  -4  305.49    8.51
  -9   1   9   31.73    4.24
   9  -1  -9   32.11    4.84
   9  -1  -9   22.84    3.63
  -9   1   8    7.07    3.86
   9  -1  -8   14.22    4.50
   9  -1  -8    2.12    3.63
  -9   1   7    3.93    3.67
   9  -1  -7    3.59    3.25
   9  -1  -7    2.57    3.82
   9  -1  -6   35.85    3.71
   9  -1  -6   31.05    3.03
   9  -1  -5   -0.26    2.80
   9  -1  -5    0.57    2.57
  -9   0   9  125.63    5.82
   9   0  -9  119.01    4.84
   9   0  -9  137.54    6.24
  -9   0   8  202.48    6.96
   9   0  -8  176.04    6.05
   9   0  -8  196.54    6.69
  -9   0   7  334.72    9.64
   9   0  -6  451.17   12.14
   9   0  -6  420.91   11.31
  -9  -1   9    6.92    4.12
   9   1  -9    3.48    4.16
   9   1  -9    5.26    3.48
  -9  -1   8   -0.61    3.93
   9   1  -8   -3.82    3.55
   9   1  -8    1.74    3.55
  -9  -1   7   91.67    4.20
   9   1  -7   85.96    3.71
   9   1  -7   88.99    3.93
  -9  -2   9  574.07   15.66
   9   2  -9  578.23   15.62
  -9  -2   8  468.94   12.82
   9   2  -8  416.75   11.42
   9   2  -8  448.14   12.22
  -9  -2   7    1.40    2.99
  -9  -3   8    4.31    3.40
   9   3  -8   29.01    3.63
   9   3  -8   29.46    3.52
  -9  -3   7   -1.97    2.42
   0   0  -6  326.37   12.08
   0   0   6  320.65   11.80
   0   0  -7  512.65   18.55
   0   0   7  493.28   17.81
   0   0  -8  199.41    8.01
   0   0   8  166.25    6.62
   0   0  -9  379.50   14.01
   0   0   9  390.32   14.32
   0   0 -10  245.86    9.39
   0   0  10  224.57    8.75
   0   0 -11  793.92   28.31
   0   0  11  813.97   28.95
   0   0 -12  443.79   16.19
   0   0  12  428.49   15.67
   0   0 -13   62.80    4.01
   0   0  13   57.70    3.88
   0  -1  14   38.33    3.65
   0   1 -14   31.39    3.74
   0  -1  13   10.78    3.11
   0   1 -13   11.15    3.03
   0  -1  12   23.77    3.14
   0   1 -12   27.88    3.06
   0  -1  11   18.46    3.04
   0   1 -11   16.82    3.20
   0  -1  10   74.53    4.15
   0   1 -10   80.27    4.27
   0  -1   9   59.95    3.58
   0   1  -9   81.31    4.30
   0  -1   8   29.13    2.86
   0   1  -8   34.84    3.10
   0  -1   7   -1.18    2.06
   0   1  -7   -1.27    1.97
   0  -1   6   23.16    2.29
   0   1  -6   26.51    2.49
   0  -1   5   32.20    2.29
   0   1  -5   32.32    2.48
   0  -1   4   33.13    2.24
   0   1  -4   30.62    2.28
   0  -1   3   38.62    2.35
   0   1  -2  107.71    4.16
   0  -1   1   48.03    1.96
   0   1  -1   55.72    2.24
   0  -1   0  100.98    3.69
   0   1   0  110.39    4.00
   0  -1  -1  276.67    9.88
   0   1   1  281.92   10.04
   0  -1  -2  218.50    8.08
   0   1   2  212.50    7.77
   0  -1  -3  180.12    6.88
   0   1   3  176.39    6.64
   0  -1  -4    3.10    1.89
   0   1   4    3.50    1.73
   0  -1  -5  638.49   22.78
   0   1   5  651.49   23.17
   0  -1  -6   67.79    3.51
   0   1   6   72.09    3.55
   0  -1  -7  117.62    5.11
   0   1   7  115.75    5.03
   0  -1  -8  535.41   19.42
   0   1   8  543.35   19.50
   0  -1  -9  106.69    4.95
   0   1   9  109.79    4.98
   0  -1 -10    1.04    2.92
   0   1  10    5.40    2.60
   0  -1 -11   85.75    4.50
   0   1  11   83.25    4.38
   0  -1 -12   35.34    3.38
   0   1  12   27.11    3.11
   0  -1 -13  293.04   11.27
   0   1  13  272.74   10.30
   0  -2  14    3.82    3.20
   0   2 -14    7.42    3.37
   0  -2  13  617.22   22.12
   0   2 -13  689.08   24.71
   0  -2  12 1128.89   39.95
   0   2 -12 1224.14   43.28
   0  -2  11 1995.64   70.12
   0   2 -11 2157.73   75.77
   0  -2  10 3032.24  106.27
   0   2 -10 3159.04  110.70
   0  -2   9 1323.09   46.70
   0   2  -9 1346.54   47.58
   0  -2   8 5080.23  177.81
   0   2  -8 5274.41  184.54
   0  -2   7 4794.45  167.74
   0   2  -7 4794.45  167.83
   0  -2   6 5789.63  202.48
   0   2  -6 6294.44  220.14
   0  -2   4   30.82    2.20
   0   2  -4   35.07    2.32
   0  -2   3  149.10    5.73
   0   2  -3  168.97    6.44
   0  -2   2  439.90   15.69
   0   2  -2  508.17   18.06
   0  -2   0  328.68   11.73
   0   2   0  289.84   10.40
   0   2   1  155.66    5.92
   0  -2  -2  254.98    9.35
   0   2   2  266.16    9.70
   0  -2  -3 1810.67   63.55
   0   2   3 1865.73   65.44
   0  -2  -4 4967.09  173.83
   0   2   4 5282.21  184.74
   0  -2  -5 1310.30   46.26
   0   2   5 1334.37   47.01
   0  -2  -6 1461.70   51.62
   0   2   6 1455.76   51.27
   0  -2  -7  263.14   10.12
   0   2   7  242.92    9.20
   0  -2  -8  701.46   25.22
   0   2   8  645.76   23.12
   0  -2  -9  691.12   24.71
   0   2   9  669.95   23.91
   0  -2 -10  692.97   24.76
   0   2  10  723.02   25.78
   0  -2 -11  630.68   22.66
   0   2  11  633.11   22.66
   0  -2 -12  141.15    6.30
   0   2  12  156.76    6.55
   0  -2 -13  451.85   16.45
   0   2  13  503.45   18.16
   0  -3  14   33.77    3.40
   0   3 -14   35.36    3.65
   0  -3  13   43.34    3.55
   0   3 -13   38.49    3.51
   0  -3  12   73.25    4.21
   0   3 -12   73.48    4.30
   0  -3  11   36.17    3.36
   0   3 -11   33.58    3.24
   0  -3  10    2.39    2.72
   0   3 -10    2.08    2.67
   0  -3   9  866.90   30.84
   0   3  -9  902.28   32.12
   0  -3   8   37.98    3.13
   0   3  -7    0.90    2.33
   0  -3   6  306.27   11.29
   0   3  -6  300.74   11.13
   0  -3   5    1.30    1.90
   0   3  -5    0.90    2.05
   0  -3   4 1572.77   55.27
   0   3  -4 1651.45   58.03
   0  -3   3  395.38   14.23
   0   3  -3  438.61   15.76
   0  -3   2 2418.85   84.77
   0   3  -2 2714.62   95.10
   0  -3   1 2848.04   99.72
   0   3  -1 2977.25  104.23
   0  -3   0  308.47   11.20
   0   3   0  304.18   11.08
   0  -3  -1  901.60   31.84
   0   3   1  863.87   30.54
   0   3   2  202.05    7.59
   0   3   2  201.38    7.63
   0   3   3   70.31    3.43
   0   3   3   71.26    3.39
   0  -3  -4  244.91    9.23
   0   3   4  246.26    9.19
   0  -3  -5   -1.47    2.10
   0   3   5   -2.02    2.02
   0  -3  -6   29.85    2.70
   0   3   6   31.47    2.42
   0  -3  -7    5.53    2.51
   0   3   7    1.71    2.62
   0  -3  -8   20.61    2.79
   0   3   8   22.13    2.99
   0  -3  -9   24.45    2.93
   0   3   9   29.89    2.88
   0  -3 -10    0.69    3.17
   0   3  10    5.19    2.61
   0  -3 -11    4.23    2.95
   0   3  11    0.65    2.75
   0  -3 -12   18.16    3.24
   0   3  12   20.64    2.92
   0  -4  14  542.01   19.54
   0   4 -14  516.88   18.68
   0  -4  13  509.67   18.44
   0   4 -13  538.73   19.45
   0  -4  12  911.39   32.38
   0   4 -12  939.52   33.36
   0  -4  11 1010.38   35.87
   0   4 -11 1042.41   36.94
   0  -4   9 2900.10  101.73
   0   4  -9 2997.54  105.11
   0  -4   8 2878.81  100.98
   0   4  -8 3102.91  108.76
   0  -4   7 6070.34  212.35
   0   4  -7 6208.84  217.25
   0  -4   6 4688.08  164.10
   0   4  -6 4893.46  171.18
   0  -4   5 2302.12   80.80
   0   4  -5 2359.30   82.81
   0  -4   4 6120.66  214.11
   0   4  -4 6522.40  228.13
   0  -4   3 4179.44  146.28
   0   4  -3 4451.00  155.73
   0  -4   1 1057.72   37.29
   0   4  -1 1155.66   40.75
   0  -4   0  537.88   19.24
   0   4   0  552.44   19.79
   0  -4  -1  240.18    8.98
   0   4   1  223.93    8.47
   0   4   2  455.27   16.35
   0   4   2  471.03   17.03
   0   4   3 1475.54   51.90
   0   4   3 1442.77   50.89
   0   4   4 1566.43   55.09
   0   4   4 1625.75   57.26
   0   4   5 2393.06   83.98
   0   4   5 2432.69   85.49
   0   4   6   12.40    2.54
   0   4   6   10.41    2.58
   0  -4  -7 2039.68   71.74
   0   4   7 2066.39   72.62
   0  -4  -8 2114.47   74.30
   0   4   8 2298.00   80.62
   0  -4  -9  895.01   31.87
   0   4   9  934.34   33.11
   0  -4 -10  673.40   24.14
   0   4  10  680.65   24.26
   0  -4 -11   11.94    3.12
   0   4  11   15.26    2.96
   0  -5  14   78.76    4.66
   0   5 -14   77.50    4.59
   0  -5  13   88.19    4.93
   0   5 -13   99.73    5.24
   0   5 -12   -6.44    3.06
   0  -5  11    5.89    3.36
   0   5 -11   -1.04    2.93
   0  -5  10  311.90   11.98
   0   5 -10  345.20   12.89
   0  -5   9   -2.54    3.14
   0   5  -9    5.01    2.67
   0  -5   8   15.65    3.13
   0   5  -8    8.66    2.58
   0  -5   7   65.58    3.76
   0   5  -7   68.40    3.76
   0  -5   6    9.61    2.45
   0   5  -6   10.16    2.37
   0  -5   5  912.34   32.43
   0   5  -5  945.92   33.57
   0  -5   4    9.08    2.17
   0   5  -4    9.32    2.32
   0  -5   3  870.14   30.87
   0   5  -3 1003.40   35.57
   0  -5   2 2243.86   78.71
   0   5  -2 2391.27   83.95
   0  -5   1   64.13    3.23
   0   5  -1   70.84    3.74
   0  -5   0  537.50   19.29
   0   5   0  521.32   18.81
   0  -5  -1   74.36    3.63
   0   5   1   65.32    3.39
   0   5   2    9.25    2.30
   0   5   2    3.75    2.02
   0   5   3   57.98    3.05
   0   5   3   62.13    3.52
   0   5   4   31.20    3.17
   0   5   4   21.65    2.66
   0   5   5  401.04   14.79
   0   5   5  371.27   13.60
   0   5   6    6.30    2.94
   0   5   6    4.15    2.99
   0   5   7   24.67    2.95
   0   5   7   29.55    3.44
   0   5   8  136.31    5.94
   0   5   8  143.17    6.38
   0   5   9   83.00    4.63
   0   5   9   82.11    4.39
   0   5  10   66.00    4.24
   0   5  10   66.76    3.88
   0   5  11   23.93    3.74
   0   5  11   22.67    3.04
   0  -6  14  878.46   31.54
   0   6 -14  952.36   33.77
   0  -6  13  688.34   24.94
   0   6 -13  723.10   25.75
   0  -6  12  803.19   28.82
   0   6 -12  877.67   31.16
   0  -6  11  130.94    6.30
   0   6 -11  152.49    6.50
   0  -6  10  565.43   20.67
   0   6 -10  617.42   22.24
   0  -6   9  185.03    7.81
   0   6  -9  214.33    8.45
   0  -6   8  827.40   29.60
   0   6  -8  935.19   33.22
   0  -6   7    6.55    3.30
   0   6  -7   11.03    2.66
   0  -6   6   21.80    2.97
   0   6  -6   24.57    2.66
   0  -6   5   58.81    3.52
   0   6  -5   70.80    3.88
   0  -6   4  235.58    9.01
   0   6  -4  268.12   10.20
   0  -6   3 3815.07  133.61
   0   6  -3 4406.26  154.40
   0  -6   2  983.03   34.85
   0   6  -2 1070.75   37.97
   0  -6   1 1226.65   43.31
   0   6  -1 1363.38   48.13
   0  -6   0  753.65   26.84
   0   6   0  731.11   26.14
   0  -6  -1 1902.14   66.89
   0   6   1 1824.56   64.24
   0   6   2 2847.88   99.83
   0   6   2 3002.44  105.38
   0   6   3 1903.94   67.01
   0   6   3 1907.90   67.05
   0   6   4 1723.70   60.62
   0   6   4 1636.19   57.64
   0   6   5   36.45    3.19
   0   6   5   44.91    3.54
   0   6   6 1850.01   65.15
   0   6   6 1830.81   64.35
   0   6   7 2372.70   83.25
   0   6   7 2291.26   80.52
   0   6   8 1652.03   58.10
   0   6   8 1644.79   57.94
   0   6   9 1512.26   53.20
   0   6   9 1456.88   51.38
   0   6  10  597.22   21.39
   0   6  10  555.41   20.18
   0  -7  13   45.05    4.21
   0   7 -13   44.25    3.57
   0  -7  12  140.75    6.93
   0   7 -12  165.79    6.89
   0  -7  11   -2.17    3.46
   0   7 -11   -2.85    3.05
   0  -7  10   11.62    3.89
   0   7 -10   18.75    3.09
   0  -7   9   72.64    4.76
   0   7  -9   71.77    4.03
   0  -7   8    2.03    3.19
   0   7  -8   -0.84    2.79
   0  -7   7   90.75    4.81
   0   7  -7   83.40    4.26
   0  -7   6    2.03    3.26
   0   7  -6    3.70    2.54
   0  -7   5    0.04    2.70
   0   7  -5   -0.64    2.54
   0  -7   4    6.90    2.77
   0   7  -4    6.42    2.38
   0  -7   3   19.97    2.66
   0   7  -3   25.01    2.90
   0  -7   2   56.43    3.37
   0   7  -2   65.11    3.76
   0  -7   1   13.63    2.42
   0   7  -1   14.99    2.77
   0  -7   0   33.00    3.06
   0   7   0   30.35    3.01
   0  -7  -1   52.10    3.50
   0   7   1   60.68    3.77
   0   7   2   12.29    2.62
   0   7   2    6.96    2.54
   0   7   3   15.50    2.91
   0   7   3    9.72    2.51
   0   7   4    8.50    2.79
   0   7   4   11.02    3.03
   0   7   5   15.94    2.93
   0   7   5   15.81    3.28
   0   7   6    4.58    3.37
   0   7   6    4.30    2.93
   0   7   7   31.02    3.55
   0   7   7   23.16    3.15
   0   7   8   -1.25    3.68
   0   7   8    3.36    2.99
   0   7   9    0.81    3.53
   0   7   9   -0.81    3.13
   0  -8  13  270.56   10.83
   0   8 -13  317.78   11.85
   0  -8  12  182.87    8.00
   0   8 -12  197.02    7.88
   0  -8  11  212.04    8.94
   0   8 -11  238.74    9.18
   0  -8  10  467.89   17.39
   0   8 -10  496.00   18.04
   0  -8   9 1337.18   47.43
   0   8  -9 1474.98   52.04
   0  -8   8  521.23   19.15
   0   8  -8  559.60   20.22
   0  -8   7  463.63   17.15
   0   8  -7  509.52   18.47
   0  -8   6  165.70    7.01
   0   8  -6  190.09    7.65
   0  -8   5  489.53   17.95
   0   8  -5  526.94   19.11
   0  -8   4 4601.67  161.08
   0   8  -4 5122.69  179.29
   0  -8   3  583.28   21.12
   0   8  -3  632.58   22.75
   0  -8   2  881.54   31.45
   0   8  -2  949.54   33.76
   0  -8   1 2122.71   74.67
   0   8  -1 2147.37   75.46
   0  -8   0 2790.93   97.98
   0   8   0 2843.48   99.77
   0  -8  -1 5401.21  188.99
   0   8   1 4986.65  174.51
   0   8   2 2300.03   80.81
   0   8   2 2300.83   80.76
   0   8   3 1884.51   66.37
   0   8   3 1849.71   65.00
   0   8   4  921.80   32.84
   0   8   4  951.06   33.72
   0   8   5  861.58   30.72
   0   8   5  907.82   32.17
   0   8   6  317.75   11.85
   0   8   6  306.06   11.65
   0   8   7  320.23   12.14
   0   8   7  363.77   13.40
   0   8   8   24.49    3.94
   0   8   8   20.97    3.33
   0  -9  12   16.94    4.29
   0   9 -12   19.66    3.16
   0  -9  11   54.29    4.77
   0   9 -11   61.08    3.96
   0  -9  10  194.83    8.50
   0   9 -10  194.75    7.82
   0  -9   9  113.75    5.99
   0   9  -9  108.20    5.19
   0  -9   8  101.17    5.85
   0   9  -8  105.06    4.98
   0  -9   7   12.81    3.73
   0   9  -7   16.13    3.00
   0  -9   6  147.36    6.63
   0   9  -6  161.15    6.80
   0  -9   5   89.79    5.11
   0   9  -5   99.05    4.79
   0  -9   4   10.14    3.27
   0   9  -4   11.66    2.83
   0  -9   3    4.67    2.99
   0   9  -3    1.55    2.63
   0  -9   2   85.15    4.75
   0   9  -2   91.29    4.75
   0  -9   1    0.56    2.95
   0   9  -1   -0.16    2.59
   0  -9   0   -1.08    3.20
   0   9   0    1.80    2.80
   0   9   1   23.98    3.36
   0   9   2    8.74    2.96
   0   9   2   12.03    2.76
   0   9   3  114.20    5.55
   0   9   3  106.69    4.94
   0   9   4  220.83    8.74
   0   9   4  206.09    8.13
   0   9   5   17.81    3.56
   0   9   5   23.75    3.03
   0   9   6   88.03    4.62
   0   9   6   83.20    4.94
   0 -10  11  533.31   19.62
   0  10 -11  619.63   22.16
   0 -10  10 1317.57   46.72
   0  10 -10 1458.62   51.37
   0 -10   9 1257.26   44.60
   0  10  -9 1437.10   50.69
   0 -10   8 1119.20   39.84
   0  10  -8 1263.28   44.59
   0 -10   7 1530.52   54.17
   0  10  -7 1687.24   59.39
   0 -10   6 2050.86   72.28
   0  10  -6 2306.92   81.03
   0 -10   5 4351.06  152.46
   0  10  -5 4583.66  160.49
   0 -10   4 1162.05   41.25
   0  10  -4 1317.18   46.54
   0 -10   3  623.68   22.61
   0  10  -3  643.73   23.16
   0 -10   2  543.29   19.85
   0  10  -2  566.14   20.49
   0 -10   1  665.25   24.03
   0  10  -1  635.15   22.91
   0 -10   0 1033.49   36.84
   0  10   0  984.08   34.99
   0  10   1  235.24    9.30
   0  10   1  228.72    8.93
   0  10   2  306.67   11.73
   0  10   2  294.58   11.04
   0  10   3  232.79    9.25
   0  10   3  236.30    9.05
   0  10   4  702.94   25.06
   0  10   4  728.05   26.04
   0  10   5  423.18   15.56
   0  10   5  425.61   15.52
   0 -11  10   14.49    4.46
   0  11 -10    8.84    3.33
   0 -11   9   11.25    4.49
   0  11  -9    2.43    2.96
   0 -11   8   48.70    4.77
   0  11  -8   64.78    3.88
   0 -11   7    3.63    4.12
   0  11  -7    8.35    2.95
   0 -11   6    7.94    3.87
   0  11  -6    1.57    3.11
   0 -11   5   37.95    4.15
   0  11  -5   43.74    3.58
   0 -11   4   48.21    4.35
   0  11  -4   46.79    3.62
   0 -11   3   -1.90    3.75
   0  11  -3    0.69    3.10
   0 -11   2   27.19    3.95
   0  11  -2   26.79    3.38
   0 -11   1    2.26    3.55
   0  11  -1   -2.06    3.11
   0 -11   0    2.62    3.23
   0  11   0    1.17    3.51
   0  11   1   37.24    3.27
   0  11   1   43.71    4.04
   0  11   2    4.42    3.04
   0  11   2    0.93    3.53
   0  11   3   -1.30    3.17
   0  11   3    1.13    3.78
   0 -12   8  195.32    8.69
   0  12  -8  221.31    8.73
   0 -12   7  224.10    9.37
   0  12  -7  239.06    9.37
   0 -12   6  339.95   13.12
   0  12  -6  393.62   14.54
   0 -12   5  426.31   15.87
   0  12  -5  457.09   16.68
   0 -12   4  543.22   19.91
   0  12  -4  598.27   21.53
   0 -12   3  133.93    6.44
   0  12  -3  145.67    6.44
   0 -12   2  715.00   25.77
   0  12  -2  715.41   25.56
   0 -12   1  596.06   21.70
   0  12  -1  585.52   21.09
   0  12   0  418.62   15.47
   0  12   0  387.15   14.13
  -1  12   1  462.04   17.03
  -1  12   1  420.19   15.44
  -1  12   0  679.21   24.30
  -1  12   0  712.08   25.52
  -1  12  -1  669.11   24.03
   1 -12   1  659.78   23.87
  -1  12  -2  303.07   11.50
   1 -12   2  301.00   11.70
  -1  12  -3 1141.53   40.40
   1 -12   3 1037.91   36.95
  -1  12  -4 1137.46   40.20
   1 -12   4 1084.84   38.58
  -1  12  -5  944.71   33.53
   1 -12   5  830.52   29.80
  -1  12  -6  664.17   23.82
   1 -12   6  579.07   21.07
  -1  12  -7  839.34   29.86
   1 -12   7  733.05   26.50
  -1  12  -8   69.07    4.23
   1 -12   8   60.78    5.00
  -1  11   3    2.39    3.73
  -1  11   3    4.99    3.33
  -1  11   2   13.40    3.77
  -1  11   2   23.12    3.60
  -1  11   1   -4.12    3.59
  -1  11   1   -1.17    2.83
  -1  11   0    3.71    3.11
   1 -11   0    3.91    3.71
  -1  11  -1   12.38    3.42
   1 -11   1   15.72    3.75
  -1  11  -2   12.57    3.51
   1 -11   2   11.97    3.62
  -1  11  -3   41.16    3.86
   1 -11   3   34.23    4.07
  -1  11  -4   56.26    4.11
   1 -11   4   44.06    4.31
  -1  11  -5   10.35    3.15
   1 -11   5   14.10    3.87
  -1  11  -6  106.39    5.24
   1 -11   6   86.71    5.41
  -1  11  -7  160.10    6.62
   1 -11   7  157.32    7.27
  -1  11  -8   53.99    3.84
   1 -11   8   43.51    4.73
  -1  11  -9   64.72    4.29
   1 -11   9   63.01    4.99
  -1  11 -10   46.27    3.78
   1 -11  10   37.57    5.07
  -1  10   5  569.00   20.60
  -1  10   5  562.51   20.31
  -1  10   4  279.82   10.63
  -1  10   4  266.92   10.36
  -1  10   2  194.11    7.97
  -1  10   2  209.86    8.29
  -1  10   1  406.80   14.96
  -1  10   1  392.36   14.31
  -1  10   0   82.58    4.65
   1 -10   0   77.32    4.70
  -1  10  -1   37.30    3.33
   1 -10   1   31.25    3.53
  -1  10  -2    4.45    3.16
   1 -10   2    6.78    3.40
  -1  10  -3   59.08    3.80
   1 -10   3   48.14    4.09
  -1  10  -4 1366.75   48.27
   1 -10   4 1209.59   42.93
  -1  10  -5  342.03   12.75
   1 -10   5  316.20   12.15
  -1  10  -6  706.35   25.26
   1 -10   6  618.01   22.49
  -1  10  -7  697.26   24.97
   1 -10   7  628.89   22.88
  -1  10  -8 1187.88   41.97
   1 -10   8 1064.21   37.86
  -1  10  -9 1803.96   63.41
   1 -10   9 1765.60   62.36
  -1  10 -10  816.62   29.06
   1 -10  10  794.77   28.61
  -1  10 -11  876.99   31.13
   1 -10  11  875.77   31.49
  -1   9   7   96.69    5.52
  -1   9   7   99.08    5.11
  -1   9   6   23.27    3.93
  -1   9   6   20.92    3.44
  -1   9   5   96.43    5.17
  -1   9   5   90.74    4.64
  -1   9   4  190.57    7.85
  -1   9   4  195.51    7.81
  -1   9   3   43.48    3.69
  -1   9   3   41.87    3.37
  -1   9   2   59.95    3.65
  -1   9   2   67.24    4.20
  -1   9   1   46.01    3.72
   1  -9  -1   44.21    3.36
  -1   9   0    0.84    2.84
   1  -9   0   -0.51    2.88
  -1   9  -1  147.79    6.31
   1  -9   1  146.31    6.43
  -1   9  -2   36.28    3.35
   1  -9   2   32.98    3.35
  -1   9  -3  310.74   11.62
   1  -9   3  271.39   10.42
  -1   9  -4  245.37    9.43
   1  -9   4  213.38    8.50
  -1   9  -5   28.25    2.99
   1  -9   5   29.01    3.55
  -1   9  -6    1.00    2.76
   1  -9   6    1.76    3.32
  -1   9  -7   11.13    2.64
   1  -9   7   13.26    4.04
  -1   9  -8    4.61    3.17
   1  -9   8   12.04    3.78
  -1   9  -9   93.49    4.75
   1  -9   9   75.06    5.43
  -1   9 -10   20.09    3.15
   1  -9  10   20.82    4.11
  -1   9 -11   -4.21    3.07
   1  -9  11    0.32    4.04
  -1   9 -12   44.25    3.78
   1  -9  12   33.94    4.63
  -1   8   8  257.47   10.18
  -1   8   8  267.33   10.21
  -1   8   7   43.92    3.96
  -1   8   7   41.54    3.47
  -1   8   6  199.92    8.17
  -1   8   6  194.07    7.73
  -1   8   5   62.12    4.14
  -1   8   5   58.70    3.65
  -1   8   4  510.30   18.55
  -1   8   4  533.93   19.23
  -1   8   3 1128.71   39.89
  -1   8   3 1129.51   39.96
  -1   8   2 2560.62   89.81
  -1   8   2 2500.38   87.81
  -1   8   1 2184.52   76.73
   1  -8  -1 2211.21   77.73
  -1   8   0 1809.74   63.72
   1  -8   0 1774.32   62.48
  -1   8  -1 1621.62   57.12
   1  -8   1 1556.00   54.85
  -1   8  -2 1757.58   61.87
   1  -8   2 1597.72   56.31
  -1   8  -3 6299.32  220.35
   1  -8   3 6052.75  211.81
  -1   8  -4  857.82   30.47
   1  -8   4  796.55   28.49
  -1   8  -5  906.74   32.22
   1  -8   5  821.13   29.35
  -1   8  -6 1120.38   39.59
   1  -8   6 1084.49   38.56
  -1   8  -7 1208.84   42.74
   1  -8   7 1099.02   39.02
  -1   8  -8 2686.21   94.24
   1  -8   8 2542.95   89.43
  -1   8  -9  689.89   24.71
   1  -8   9  668.23   24.27
  -1   8 -10  683.74   24.45
   1  -8  10  630.24   22.88
  -1   8 -11  806.51   28.68
   1  -8  11  773.83   27.80
  -1   8 -12  399.12   14.62
   1  -8  12  370.37   14.09
   1  -8  13   38.00    4.67
  -1   7   9   17.62    3.89
  -1   7   9   20.47    3.28
  -1   7   8    4.00    2.95
  -1   7   8   14.05    3.71
  -1   7   7   44.97    3.86
  -1   7   7   41.55    3.42
  -1   7   6   81.92    4.58
  -1   7   6   74.94    4.18
  -1   7   5   48.98    3.32
  -1   7   5   46.59    3.88
  -1   7   4    4.15    2.87
  -1   7   4    9.33    2.63
  -1   7   3    6.33    2.51
  -1   7   3    8.28    2.71
  -1   7   2   29.49    2.78
  -1   7   2   34.86    2.98
  -1   7   1    8.02    2.50
   1  -7  -1    4.80    2.66
  -1   7   0   26.61    2.86
   1  -7   0   33.16    2.97
  -1   7  -1   31.35    2.90
   1  -7   1   27.78    2.81
  -1   7  -2    6.15    2.30
   1  -7   2    7.89    2.53
  -1   7  -3   46.86    3.13
   1  -7   3   39.61    3.01
  -1   7  -4   78.10    4.00
   1  -7   4   77.35    4.16
  -1   7  -5   21.05    2.62
   1  -7   5   17.59    3.06
  -1   7  -6   27.47    2.91
   1  -7   6   25.40    3.26
  -1   7  -7   72.61    4.06
   1  -7   7   70.85    4.38
  -1   7  -8   26.22    3.07
   1  -7   8   30.54    3.71
  -1   7  -9   70.14    4.12
   1  -7   9   70.86    4.48
  -1   7 -10   37.47    3.41
   1  -7  10   30.66    3.81
  -1   7 -11  166.62    6.92
   1  -7  11  159.66    7.41
  -1   7 -12   74.30    4.24
   1  -7  12   68.08    5.05
  -1   7 -13   20.32    3.29
   1  -7  13   23.77    4.18
  -1   6  10  521.94   19.01
  -1   6  10  498.43   18.00
  -1   6   9  786.92   28.17
  -1   6   9  801.04   28.45
  -1   6   8 1716.24   60.42
  -1   6   8 1807.91   63.52
  -1   6   7 1318.96   46.64
  -1   6   7 1281.70   45.23
  -1   6   6    3.99    3.19
  -1   6   6    9.86    2.64
  -1   6   5 2337.31   82.03
  -1   6   5 2420.97   85.05
  -1   6   4 2329.22   81.80
  -1   6   4 2438.12   85.54
  -1   6   3 3288.03  115.29
  -1   6   3 3386.42  118.62
  -1   6   2 2868.28  100.62
  -1   6   2 2851.65   99.94
  -1   6   1 1800.66   63.39
   1  -6  -1 1893.25   66.55
  -1   6   0 5649.66  197.75
   1  -6   0 5392.69  188.74
  -1   6  -1 6054.49  211.83
   1  -6   1 5517.01  192.98
  -1   6  -3 4123.36  144.42
   1  -6   3 3667.93  128.49
  -1   6  -4 3131.78  109.78
   1  -6   4 2794.70   98.00
  -1   6  -5  932.74   33.12
   1  -6   5  879.66   31.29
  -1   6  -6 1148.32   40.62
   1  -6   6 1096.76   38.91
  -1   6  -7 1137.75   40.26
   1  -6   7 1131.39   40.13
  -1   6  -8  370.53   13.67
   1  -6   8  360.62   13.50
  -1   6  -9  129.26    5.75
   1  -6   9  115.61    5.71
  -1   6 -10  128.00    5.69
   1  -6  10  110.87    5.77
  -1   6 -11  455.74   16.60
   1  -6  11  422.38   15.84
  -1   6 -12  240.54    9.32
   1  -6  12  221.14    9.04
  -1   6 -13  935.69   33.13
   1  -6  13  930.02   33.18
  -1   5  11    1.78    3.69
  -1   5  11    3.08    2.63
  -1   5  10    1.70    3.43
  -1   5  10    0.24    2.91
  -1   5   9    6.24    3.46
  -1   5   9    7.11    2.94
  -1   5   8    3.64    3.20
  -1   5   8    1.33    3.09
  -1   5   7    3.63    3.19
  -1   5   7    5.11    2.63
  -1   5   6   35.59    3.42
  -1   5   6   34.83    3.18
  -1   5   5   -2.62    2.54
  -1   5   5   -0.16    2.31
  -1   5   4    0.71    2.38
  -1   5   4   -1.15    2.18
  -1   5   3   26.58    2.53
  -1   5   3   21.21    2.17
  -1   5   2    2.13    2.17
  -1   5   2    1.38    1.73
  -1   5   1  171.37    6.67
   1  -5  -1  177.21    6.83
  -1   5   0  172.05    6.71
   1  -5   0  165.38    6.39
  -1   5  -1  192.35    7.41
   1  -5   1  173.07    6.71
  -1   5  -2  222.88    8.48
   1  -5   2  191.41    7.33
  -1   5  -3    1.73    2.05
   1  -5   3    3.19    2.17
  -1   5  -4  691.29   24.67
   1  -5   4  626.94   22.42
  -1   5  -5   40.36    2.96
   1  -5   5   30.20    2.65
  -1   5  -6   53.68    3.45
   1  -5   6   50.40    3.29
  -1   5  -7   72.52    3.93
   1  -5   7   59.59    3.77
  -1   5  -8   45.21    3.34
   1  -5   8   47.72    3.53
  -1   5  -9  376.18   13.91
   1  -5   9  375.14   14.04
  -1   5 -10   49.88    3.68
   1  -5  10   47.44    4.00
  -1   5 -11   15.49    3.13
   1  -5  11   15.78    3.41
  -1   5 -12   80.27    4.40
   1  -5  12   77.00    4.83
  -1   5 -13   60.01    3.93
   1  -5  13   61.22    4.49
  -1   4  12   75.14    4.34
   1  -4 -12   64.54    4.34
  -1   4  11  594.33   21.29
   1  -4 -11  586.66   21.09
  -1   4  10  928.92   32.91
   1  -4 -10  866.56   30.78
  -1   4   9 2783.11   97.58
   1  -4  -9 2670.50   93.69
  -1   4   8 2129.18   74.80
   1  -4  -8 2024.97   71.20
  -1   4   7   38.25    3.02
   1  -4  -7   47.61    3.34
  -1   4   6 5073.15  177.48
  -1   4   5 4106.60  143.71
  -1   4   5 3940.27  138.04
  -1   4   4 2940.33  103.03
  -1   4   4 2962.47  103.90
  -1   4   3 1040.44   36.69
  -1   4   3 1001.78   35.43
  -1   4   2  138.95    5.40
  -1   4   2  139.14    5.59
  -1   4   1  700.79   24.88
   1  -4  -1  701.97   24.88
  -1   4   0   92.71    4.01
   1  -4   0   75.43    3.38
  -1   4  -1  849.04   30.02
   1  -4   1  778.22   27.54
  -1   4  -2  109.33    4.65
   1  -4   2   92.79    4.06
  -1   4  -3 1113.60   39.30
   1  -4   3  973.80   34.37
  -1   4  -4  101.61    4.50
   1  -4   4   91.88    4.30
  -1   4  -5 1709.45   60.15
   1  -4   5 1597.75   56.25
  -1   4  -6 4337.42  151.90
   1  -4   6 4104.14  143.65
  -1   4  -7 2115.07   74.33
   1  -4   7 2036.21   71.60
  -1   4  -8 1551.14   54.65
   1  -4   8 1455.01   51.36
  -1   4  -9   68.72    3.91
   1  -4   9   64.61    4.06
  -1   4 -10  541.53   19.62
   1  -4  10  510.76   18.70
  -1   4 -11  497.38   18.06
   1  -4  11  455.66   16.84
  -1   4 -12  297.61   11.23
   1  -4  12  287.38   11.16
  -1   4 -13  147.39    6.23
   1  -4  13  134.21    6.31
  -1   3  13  125.62    5.66
   1  -3 -13  108.12    5.77
  -1   3  12   55.24    3.93
   1  -3 -12   46.98    3.84
  -1   3  11   82.05    4.40
   1  -3 -11   84.71    4.43
  -1   3  10   20.62    2.65
   1  -3 -10   18.29    3.16
  -1   3   9  120.53    5.36
   1  -3  -9  118.58    5.36
  -1   3   8  327.62   12.06
   1  -3  -8  347.45   12.86
  -1   3   7    6.36    2.42
   1  -3  -7    4.76    2.54
  -1   3   6   67.60    3.45
   1  -3  -6   61.73    3.40
  -1   3   5  167.77    6.60
   1  -3  -5  159.66    6.33
  -1   3   4    1.58    1.77
   1  -3  -4    1.34    1.77
  -1   3   3   99.94    4.30
  -1   3   3  104.62    4.30
  -1   3   2   62.70    2.91
  -1   3   2   63.09    2.83
  -1   3   1   12.89    1.42
   1  -3  -1   12.58    1.46
  -1   3   0 1360.08   47.77
   1  -3   0 1237.50   43.46
  -1   3  -1 2181.12   76.41
   1  -3   1 2005.90   70.28
  -1   3  -2    0.31    1.65
   1  -3   2    1.65    1.50
  -1   3  -3  792.46   28.04
   1  -3   3  775.95   27.50
  -1   3  -4    5.16    1.93
   1  -3   4    3.90    1.85
  -1   3  -5  168.76    6.67
   1  -3   5  151.33    6.08
  -1   3  -6  345.94   12.76
   1  -3   6  315.45   11.65
  -1   3  -7  171.04    6.81
   1  -3   7  177.03    7.09
  -1   3  -8 1047.61   37.16
   1  -3   8 1023.79   36.32
  -1   3  -9   32.41    3.14
   1  -3   9   28.39    3.22
  -1   3 -10   39.95    3.39
   1  -3  10   36.95    3.52
  -1   3 -11  361.64   13.39
   1  -3  11  355.58   13.43
  -1   3 -12    9.06    3.10
   1  -3  12   13.69    3.50
  -1   3 -13   10.79    3.19
   1  -3  13    6.15    3.97
  -1   2  13  207.30    8.27
   1  -2 -13  181.38    7.54
  -1   2  12  732.50   26.11
   1  -2 -12  676.40   24.21
  -1   2  11 1121.02   39.62
   1  -2 -11 1157.59   40.98
  -1   2  10 1175.34   41.50
   1  -2 -10 1160.14   41.01
  -1   2   9 1291.86   45.57
   1  -2  -9 1248.01   44.10
  -1   2   8  127.81    5.53
   1  -2  -8  134.41    5.84
  -1   2   7 3374.21  118.20
   1  -2  -7 3240.28  113.57
  -1   2   6 4004.06  140.20
   1  -2  -6 3872.04  135.61
  -1   2   4 5933.36  207.45
   1  -2  -3 3674.97  128.57
  -1   2  -1  401.48   14.28
   1  -2   1  377.70   13.42
  -1   2  -2   10.28    1.61
   1  -2   2    6.60    1.61
  -1   2  -3   13.88    1.81
   1  -2   3   15.45    1.89
  -1   2  -4  136.77    5.47
   1  -2   4  123.78    5.04
  -1   2  -5 4173.65  146.06
   1  -2   5 4086.95  143.06
  -1   2  -6  920.12   32.62
   1  -2   6  862.07   30.61
  -1   2  -7 2173.15   76.32
   1  -2   7 2109.41   74.10
  -1   2  -8 1548.81   54.58
   1  -2   8 1493.63   52.71
  -1   2  -9 2818.64   98.83
   1  -2   9 2766.08   97.04
  -1   2 -10 2631.93   92.34
   1  -2  10 2559.61   89.87
  -1   2 -12 1689.86   59.46
   1  -2  12 1769.22   62.19
  -1   2 -13  414.81   15.17
   1  -2  13  422.91   15.42
  -1   1  14   58.27    4.19
   1  -1 -14   56.44    4.15
  -1   1  13    3.64    3.16
   1  -1 -13    3.88    3.07
  -1   1  12   11.39    2.98
   1  -1 -12    9.06    3.06
  -1   1  11  247.64    9.50
   1  -1 -11  261.24    9.94
  -1   1  10  213.49    8.43
   1  -1 -10  215.20    8.39
  -1   1   9  144.63    5.98
   1  -1  -9  153.72    6.53
  -1   1   8  810.98   28.84
   1  -1  -8  780.43   27.81
  -1   1   7    2.13    2.06
   1  -1  -7    2.73    2.22
  -1   1   6  242.87    9.08
   1  -1  -6  237.42    8.93
  -1   1   5   66.02    3.19
   1  -1  -5   67.36    3.35
  -1   1   4    2.40    1.53
   1  -1  -4   -0.94    1.50
  -1   1   3  424.97   15.12
   1  -1  -3  408.87   14.57
  -1   1   2  484.63   17.11
   1  -1  -2  465.41   16.45
  -1   1   1   10.39    0.74
   1  -1  -1   10.27    0.74
  -1   1   0  114.04    4.08
   1  -1   0  105.34    3.80
  -1   1  -1   91.05    3.53
   1  -1   1   83.70    3.26
  -1   1  -2  227.92    8.36
   1  -1   2  205.24    7.57
  -1   1  -3    2.24    1.69
   1  -1   3    6.25    1.69
  -1   1  -4  305.65   11.17
   1  -1   4  274.06   10.08
  -1   1  -5   47.10    2.88
   1  -1   5   42.01    2.60
  -1   1  -6   80.57    3.91
   1  -1   6   78.63    3.79
  -1   1  -7  297.50   11.13
   1  -1   7  287.01   10.73
  -1   1  -8   25.93    2.90
   1  -1   9   72.02    3.98
  -1   1 -10  170.60    6.96
   1  -1  10  166.00    6.83
  -1   1 -11  125.88    5.58
   1  -1  11  126.37    5.61
  -1   1 -12   94.26    4.88
   1  -1  12   82.41    4.36
  -1   1 -13  119.51    5.63
   1  -1  13  135.43    5.87
  -1   0  14  273.58   10.43
   1   0 -14  278.82   10.67
  -1   0  13  896.98   31.82
   1   0 -13  916.77   32.51
  -1   0  12 1119.27   39.56
   1   0 -12 1072.23   37.99
  -1   0  11  790.73   28.19
   1   0 -11  783.93   27.95
  -1   0  10  552.41   19.95
   1   0 -10  598.68   21.61
  -1   0   9   34.63    3.06
   1   0  -9   36.77    3.30
  -1   0   8   25.25    2.66
   1   0  -8   26.31    2.73
  -1   0   7   69.48    3.55
   1   0  -7   69.92    3.64
  -1   0   6   21.96    2.21
   1   0  -6   21.65    2.29
  -1   0   5  763.60   27.04
   1   0  -5  760.06   26.96
  -1   0   4 2571.86   90.03
   1   0  -4 2476.36   86.78
  -1   0   2 1179.92   41.35
   1   0  -2 1261.51   44.20
  -1   0  -1  822.54   28.91
   1   0   1  830.38   29.19
  -1   0  -5 3274.65  114.70
   1   0   5 3300.28  115.57
  -1   0  -7 3185.64  111.70
   1   0   7 3117.88  109.24
  -1   0  -8 1160.06   41.05
   1   0   8 1288.82   45.46
  -1   0  -9  576.60   20.74
   1   0   9  531.95   19.18
  -1   0 -10 1738.72   61.20
   1   0  10 1783.95   62.72
  -1   0 -11  927.62   32.96
   1   0  11  872.96   31.03
  -1   0 -12  282.00   10.70
   1   0  12  295.01   11.06
  -1   0 -13  350.58   13.10
   1   0  13  340.39   12.58
  -1  -1  14   38.66    3.53
   1   1 -14   42.68    3.64
  -1  -1  13   88.01    4.63
   1   1 -13   87.81    4.68
  -1  -1  12    6.23    2.97
   1   1 -12    1.81    3.01
  -1  -1  11  363.32   13.48
   1   1 -11  386.07   14.24
  -1  -1  10  593.75   21.36
   1   1 -10  636.78   22.87
  -1  -1   9  145.76    6.08
   1   1  -9  163.80    6.79
  -1  -1   8  166.18    6.74
   1   1  -8  182.21    7.25
  -1  -1   7  365.56   13.39
   1   1  -7  401.75   14.70
  -1  -1   6   -0.90    1.97
   1   1  -6    1.31    2.01
  -1  -1   5    5.04    1.89
   1   1  -5   11.37    1.97
  -1  -1   4  255.53    9.39
   1   1  -4  263.74    9.74
  -1  -1   3  200.63    7.42
   1   1  -3  218.46    8.08
  -1  -1   2   48.88    2.24
   1   1  -2   47.23    2.39
  -1  -1   1  193.19    6.98
   1   1  -1  191.35    6.94
  -1  -1   0  424.40   15.03
   1   1   0  418.91   14.86
  -1  -1  -1   91.48    3.77
   1   1   1   73.81    3.10
  -1  -1  -2   12.88    1.69
   1   1   2   13.16    1.72
  -1  -1  -3   85.22    3.77
   1   1   4   32.02    2.32
  -1  -1  -5   19.89    2.49
   1   1   5   22.37    2.17
  -1  -1  -6    2.37    2.22
   1   1   6    5.11    2.22
  -1  -1  -7    2.38    2.66
   1   1   7   -2.82    2.18
  -1  -1  -8   30.25    3.07
   1   1   8   32.51    2.91
  -1  -1  -9   72.88    3.96
   1   1   9   62.05    3.59
  -1  -1 -10    7.45    2.69
   1   1  10    5.49    2.60
  -1  -1 -11   -1.57    3.42
   1   1  11    2.30    2.57
  -1  -1 -12   39.64    3.48
   1   1  12   45.99    3.59
  -1  -2  14  110.94    5.30
   1   2 -14  113.54    5.50
  -1  -2  13  217.95    8.58
   1   2 -13  215.77    8.58
  -1  -2  12  714.29   25.52
   1   2 -12  777.69   27.73
  -1  -2  11  984.91   34.93
   1   2 -11 1051.67   37.26
  -1  -2  10  171.51    7.01
   1   2 -10  172.87    7.09
  -1  -2   9 4721.07  165.29
   1   2  -9 5241.23  183.48
  -1  -2   8 5781.06  202.25
   1   2  -8 5998.83  209.78
  -1  -2   7  10385.    363.
  -1  -2   6 7848.86  274.33
  -1  -2   5 6529.32  228.24
  -1  -2   1 1422.69   49.88
   1   2  -1 1454.87   51.06
  -1  -2   0 1347.27   47.30
   1   2   0 1367.29   48.01
   1   2   2 4749.77  166.08
   1   2   2 4773.36  167.06
  -1  -2  -4 1871.92   65.83
   1   2   4 2144.46   75.22
  -1  -2  -5 1743.49   61.39
   1   2   5 1743.09   61.22
  -1  -2  -6 1771.63   62.36
   1   2   6 1941.62   68.20
  -1  -2  -7  939.82   33.42
   1   2   7  949.76   33.65
  -1  -2  -8  118.29    5.26
   1   2   8  111.43    5.02
  -1  -2  -9  848.29   30.22
   1   2   9  851.08   30.22
  -1  -2 -10  140.08    6.03
   1   2  10  141.06    5.99
  -1  -2 -11    7.90    2.98
   1   2  11    5.93    2.75
  -1  -2 -12   67.47    4.38
   1   2  12   65.76    3.93
  -1  -3  14    2.43    3.23
   1   3 -14   -2.43    3.39
  -1  -3  13    4.07    3.18
   1   3 -13    2.37    3.15
  -1  -3  12    1.29    3.01
   1   3 -12    6.22    3.01
  -1  -3  11   45.44    3.48
   1   3 -11   45.41    3.39
  -1  -3  10    8.13    2.83
   1   3 -10    6.61    2.79
  -1  -3   9   65.45    3.77
   1   3  -9   72.48    4.01
  -1  -3   8   55.41    3.25
   1   3  -8   70.59    3.88
  -1  -3   7  142.15    5.85
   1   3  -7  172.42    6.99
  -1  -3   6  296.66   11.00
   1   3  -6  332.27   12.31
  -1  -3   5  375.57   13.67
   1   3  -5  395.03   14.37
  -1  -3   4   50.71    2.88
   1   3  -4   48.03    2.83
  -1  -3   3  594.75   21.15
   1   3  -3  616.77   21.97
  -1  -3   2 2551.74   89.40
   1   3  -1   14.27    1.77
  -1  -3   0  529.08   18.87
   1   3   0  512.19   18.31
   1   3   1   15.70    2.09
   1   3   2   37.89    2.36
   1   3   2   41.90    2.71
   1   3   3  194.91    7.53
   1   3   3  191.68    7.37
  -1  -3  -4   31.73    2.57
   1   3   4   24.82    2.45
  -1  -3  -5  391.87   14.41
   1   3   5  431.27   15.64
  -1  -3  -6    2.51    2.46
   1   3   6   -1.23    2.38
  -1  -3  -7    1.08    2.51
   1   3   7    6.65    2.43
  -1  -3  -8   81.32    4.39
   1   3   8   80.57    4.16
  -1  -3  -9   26.76    3.33
   1   3   9   26.16    2.96
  -1  -3 -10    8.22    2.98
   1   3  10    7.69    2.70
  -1  -3 -11   24.88    3.68
   1   3  11   23.71    3.07
  -1  -4  14  435.08   15.95
   1   4 -14  462.60   16.83
  -1  -4  13  925.16   32.84
   1   4 -13  985.20   34.94
  -1  -4  12  255.84    9.95
   1   4 -12  306.22   11.48
  -1  -4  11  220.89    8.67
   1   4 -11  225.20    8.72
  -1  -4  10 1112.76   39.42
   1   4 -10 1237.12   43.72
  -1  -4   9 1314.21   46.41
   1   4  -9 1472.37   51.94
  -1  -4   8 1513.07   53.35
   1   4  -8 1602.25   56.45
  -1  -4   7 1493.21   52.60
   1   4  -7 1662.91   58.58
  -1  -4   6  983.58   34.83
   1   4  -6 1103.62   39.06
  -1  -4   5 5677.99  198.65
   1   4  -5 5910.64  206.78
  -1  -4   4 6767.29  236.74
  -1  -4   2 3240.12  113.46
   1   4  -2 3438.06  120.42
  -1  -4   1 2496.59   87.54
   1   4  -1 2548.94   89.38
  -1  -4   0  309.64   11.38
   1   4   0  317.87   11.70
  -1  -4  -1  963.66   34.09
   1   4   1  950.26   33.70
   1   4   2 2528.36   88.63
   1   4   2 2643.59   92.78
   1   4   3  614.64   21.98
   1   4   3  610.69   21.94
   1   4   4 1104.20   39.01
   1   4   4 1033.31   36.68
   1   4   5  153.20    6.16
   1   4   5  163.64    6.78
   1   4   6 1789.03   62.90
   1   4   6 1740.07   61.30
   1   4   7 2044.23   71.97
   1   4   7 2092.15   73.48
   1   4   8 1858.25   65.32
   1   4   9 1276.51   45.02
   1   4  10  333.73   12.32
   1   4  11  684.75   24.35
   1   4  11  701.39   25.16
  -1  -5  14   47.22    3.89
   1   5 -14   53.01    3.97
  -1  -5  13   36.04    3.63
   1   5 -13   37.70    3.51
  -1  -5  12   85.10    4.90
   1   5 -12   90.05    4.66
  -1  -5  11   75.32    4.48
   1   5 -11   88.21    4.57
  -1  -5  10   17.32    2.99
   1   5 -10   14.00    2.72
  -1  -5   9   -0.71    2.78
   1   5  -9    2.39    2.82
  -1  -5   8    2.78    2.58
   1   5  -8    7.58    2.62
  -1  -5   7   26.89    3.36
   1   5  -6  199.59    7.87
  -1  -5   5   87.87    4.19
   1   5  -5  105.34    4.78
  -1  -5   4  128.69    5.45
   1   5  -4  162.94    6.59
  -1  -5   3  957.23   33.92
   1   5  -3 1080.69   38.26
  -1  -5   2  126.99    5.21
   1   5  -2  138.89    5.84
  -1  -5   1  605.09   21.66
   1   5  -1  637.44   22.84
  -1  -5   0   87.00    4.03
   1   5   0   85.61    4.11
  -1  -5  -1   18.65    2.41
   1   5   1   17.94    2.52
   1   5   2  351.92   12.94
   1   5   2  356.15   13.18
   1   5   3   -0.24    2.02
   1   5   3    3.25    2.66
   1   5   4  493.69   17.79
   1   5   4  487.33   17.79
   1   5   5  374.51   13.74
   1   5   5  401.35   14.86
   1   5   6   81.66    4.32
   1   5   6   75.03    4.36
   1   5   7  191.58    7.89
   1   5   7  208.89    8.13
   1   5   8    7.40    2.77
   1   5   8    4.26    3.14
   1   5   9   39.72    3.31
   1   5   9   37.95    3.47
   1   5  10    6.65    3.28
   1   5  10   13.54    2.88
  -1  -6  14  890.97   31.62
   1   6 -14  908.80   32.26
  -1  -6  13 1221.92   43.20
   1   6 -13 1326.87   46.78
  -1  -6  12  428.30   15.72
   1   6 -12  460.86   16.81
  -1  -6  11 2204.73   77.47
   1   6 -11 2445.61   85.85
  -1  -6  10 2542.12   89.27
   1   6 -10 2819.03   98.85
  -1  -6   9 2074.31   73.13
  -1  -6   8 1285.90   45.53
   1   6  -8 1383.32   48.83
  -1  -6   7  302.34   11.47
   1   6  -7  296.50   11.11
  -1  -6   6  992.26   35.27
   1   6  -6 1031.49   36.57
  -1  -6   5 1017.65   36.10
   1   6  -5 1156.58   40.96
  -1  -6   4 3303.75  115.76
   1   6  -4 3689.77  129.29
  -1  -6   3  547.97   19.77
   1   6  -3  604.12   21.75
  -1  -6   2 1109.78   39.30
   1   6  -2 1171.85   41.48
  -1  -6   1  454.04   16.45
   1   6  -1  453.25   16.53
  -1  -6   0 1258.25   44.45
   1   6   0 1230.55   43.54
  -1  -6  -1 2552.23   89.63
   1   6   1 2404.82   84.48
   1   6   2  422.24   15.47
   1   6   2  448.83   16.31
   1   6   3  298.10   11.22
   1   6   3  299.82   11.13
   1   6   4  237.65    9.17
   1   6   4  237.74    9.24
   1   6   5  194.53    7.71
   1   6   5  194.53    7.95
   1   6   6  249.93    9.58
   1   6   6  258.88   10.06
   1   6   7  151.55    6.51
   1   6   7  159.63    6.55
   1   6   8  214.23    8.35
   1   6   8  202.81    8.15
   1   6   9   21.64    3.28
   1   6   9   24.84    3.48
  -1  -7  14   81.47    5.00
   1   7 -14   93.33    4.95
  -1  -7  13  203.22    8.37
   1   7 -13  226.14    8.94
  -1  -7  12    4.23    3.66
   1   7 -12    8.98    3.18
   1   7 -11   93.24    4.78
  -1  -7  10  140.10    6.57
   1   7 -10  162.68    6.81
  -1  -7   9  131.48    6.27
   1   7  -9  147.77    6.39
  -1  -7   8   64.88    4.35
   1   7  -8   68.39    3.87
  -1  -7   7   52.39    3.86
   1   7  -7   56.29    3.50
  -1  -7   6    8.66    3.22
   1   7  -6    7.98    2.74
  -1  -7   5   35.92    3.17
   1   7  -5   36.59    3.02
  -1  -7   4  178.39    7.37
   1   7  -4  193.15    7.65
  -1  -7   3   21.26    2.62
   1   7  -3   21.22    2.66
  -1  -7   2   11.81    2.70
   1   7  -2    5.71    2.46
  -1  -7   1   61.06    3.57
   1   7  -1   63.72    3.85
  -1  -7   0    4.56    2.70
   1   7   0    3.13    2.42
  -1  -7  -1  104.73    4.93
   1   7   1   99.04    4.85
   1   7   2   22.26    2.79
   1   7   2   17.76    2.91
   1   7   3   88.27    4.27
   1   7   3   91.42    4.67
   1   7   4    0.36    2.48
   1   7   4    4.88    3.00
   1   7   5    2.53    2.89
   1   7   5    1.93    3.13
   1   7   6   11.67    2.97
   1   7   6    8.77    3.22
   1   7   7    7.47    3.31
   1   7   7   10.05    2.78
   1   7   8    3.40    2.96
   1   7   8    0.72    3.49
  -1  -8  13  171.12    7.73
   1   8 -13  184.52    7.57
  -1  -8  12  355.36   13.77
   1   8 -12  370.06   13.65
  -1  -8  11  477.37   17.67
   1   8 -11  543.78   19.64
  -1  -8  10 1245.52   44.23
   1   8 -10 1411.70   49.81
  -1  -8   9  383.57   14.50
   1   8  -9  396.07   14.57
  -1  -8   8  228.51    9.35
   1   8  -8  251.16    9.75
  -1  -8   7   92.01    5.18
   1   8  -7  116.46    5.42
  -1  -8   6  197.32    8.20
   1   8  -6  216.65    8.57
  -1  -8   5 2030.00   71.46
   1   8  -5 2101.26   73.89
  -1  -8   4   53.88    3.82
   1   8  -4   46.95    3.38
  -1  -8   3   17.98    3.07
   1   8  -3   16.67    2.94
  -1  -8   2  327.88   12.29
   1   8  -2  330.42   12.38
  -1  -8   1 1206.16   42.77
   1   8  -1 1210.95   42.88
  -1  -8   0 2911.41  102.20
   1   8   0 2822.52   99.05
   1   8   1 2154.63   75.68
   1   8   1 2067.21   72.69
   1   8   2 2328.34   81.73
   1   8   2 2380.32   83.65
   1   8   3 2958.00  103.74
   1   8   3 2948.78  103.34
   1   8   4 3447.87  120.76
   1   8   4 3220.51  112.92
   1   8   5 2022.40   71.02
   1   8   5 1957.95   68.85
   1   8   6 2651.45   93.04
   1   8   6 2667.62   93.49
   1   8   7 1122.05   39.71
   1   8   7 1169.10   41.21
  -1  -9  12    9.76    4.22
   1   9 -12    1.95    3.08
  -1  -9  11   82.06    5.37
   1   9 -11   91.35    4.72
  -1  -9  10   11.23    3.95
   1   9 -10    8.93    3.14
  -1  -9   9   38.32    4.58
   1   9  -9   48.36    3.61
  -1  -9   8   -0.44    3.40
   1   9  -8    1.60    2.89
  -1  -9   7   18.69    3.60
   1   9  -7   24.66    3.24
  -1  -9   6  278.06   11.00
   1   9  -6  322.09   12.20
  -1  -9   5   49.67    3.92
   1   9  -5   59.02    3.99
  -1  -9   4   14.02    3.39
   1   9  -4   18.38    2.99
  -1  -9   3   52.52    4.03
   1   9  -3   49.88    3.52
  -1  -9   2    0.08    3.15
   1   9  -2    5.32    2.72
  -1  -9   1   17.43    3.44
   1   9  -1   15.96    3.28
  -1  -9   0   19.69    3.53
   1   9   0   12.52    2.88
   1   9   1   23.25    3.05
   1   9   1   28.46    3.45
   1   9   2   31.74    3.21
   1   9   2   34.50    3.61
   1   9   3   95.77    4.51
   1   9   3   91.79    4.91
   1   9   4   13.81    3.11
   1   9   4    7.47    3.35
   1   9   5   41.69    3.52
   1   9   5   39.55    3.73
   1   9   6   37.62    3.45
   1   9   6   34.04    3.86
  -1 -10  12   20.39    4.39
  -1 -10  11  223.37    9.32
   1  10 -11  274.16   10.40
  -1 -10  10   71.39    5.13
   1  10 -10   86.41    4.64
  -1 -10   9   96.80    5.68
   1  10  -9  106.67    5.03
  -1 -10   8  349.11   13.32
   1  10  -8  422.15   15.45
  -1 -10   7  968.12   34.56
   1  10  -7 1148.96   40.63
  -1 -10   6 3405.26  119.52
   1  10  -6 3865.75  135.42
  -1 -10   5  623.09   22.67
   1  10  -5  686.88   24.63
  -1 -10   4 1027.65   36.62
   1  10  -4 1131.13   40.11
  -1 -10   3  953.16   34.02
   1  10  -3  977.64   34.79
  -1 -10   2 1142.67   40.62
   1  10  -2 1170.77   41.46
  -1 -10   1 1405.59   49.74
   1  10  -1 1317.62   46.52
  -1 -10   0  147.21    6.60
   1  10   0  148.98    6.56
   1  10   1  134.08    5.92
   1  10   1  140.97    6.05
   1  10   2  176.77    7.43
   1  10   2  178.87    7.10
   1  10   3  202.20    7.97
   1  10   3  201.96    8.26
   1  10   4   69.67    4.18
   1  10   4   79.41    4.54
  -1 -11  10    6.37    4.38
   1  11 -10   15.78    3.24
  -1 -11   9   23.19    4.42
   1  11  -9   38.09    3.36
  -1 -11   8   12.28    3.88
   1  11  -8   13.54    3.07
  -1 -11   7   19.34    3.76
   1  11  -7   17.55    3.39
  -1 -11   6   69.89    4.88
   1  11  -6   86.02    4.52
  -1 -11   5    7.94    3.42
   1  11  -5   14.79    3.15
  -1 -11   4   15.35    3.83
   1  11  -4   17.09    3.06
  -1 -11   3   24.79    3.79
   1  11  -3   31.88    3.22
  -1 -11   2    5.04    3.67
   1  11  -2   -0.45    3.35
  -1 -11   1   13.81    3.92
   1  11  -1    8.15    3.07
   1  11   0    9.06    3.52
   1  11   0    7.72    2.75
   1  11   1    0.09    3.12
   1  11   1   -1.21    2.99
   1  11   2    5.85    3.17
   1  11   2    4.55    3.24
  -1 -12   8  395.50   14.86
   1  12  -8  445.85   16.28
  -1 -12   7  549.98   20.16
   1  12  -7  640.84   23.03
  -1 -12   6  439.73   16.38
   1  12  -6  479.46   17.39
  -1 -12   5  729.24   26.26
   1  12  -5  798.92   28.44
  -1 -12   4  502.77   18.51
   1  12  -4  555.03   20.09
  -1 -12   3 1328.12   47.06
   1  12  -3 1339.87   47.30
  -1 -12   2 1671.43   58.93
   1  12  -2 1645.47   57.96
  -1 -12   1 1133.67   40.24
   1  12  -1 1090.64   38.62
   1  12   0 1030.47   36.44
   1  12   0 1142.70   40.59
  -2  12   1  157.55    6.91
  -2  12   1  162.42    7.03
  -2  12   0  151.90    6.86
  -2  12  -1   13.78    3.85
   2 -12   1   14.35    4.30
  -2  12  -2  496.74   18.11
   2 -12   2  493.50   18.24
  -2  12  -3  591.82   21.31
   2 -12   3  538.35   19.77
  -2  12  -4  436.34   16.00
   2 -12   4  378.36   14.42
  -2  12  -5  595.46   21.40
   2 -12   5  573.17   20.95
  -2  12  -6  894.62   31.77
   2 -12   6  800.08   28.80
  -2  12  -7  129.15    5.97
   2 -12   7  114.93    6.46
  -2  11   4   10.85    3.94
  -2  11   4   13.33    3.99
  -2  11   3   10.10    3.49
  -2  11   3    0.49    3.49
  -2  11   2    1.78    3.32
  -2  11   2    2.27    3.24
  -2  11   1    1.01    3.39
  -2  11   1   -2.06    3.43
  -2  11   0   32.16    3.39
   2 -11   0   28.45    3.67
  -2  11  -1    1.45    2.98
   2 -11   1    3.87    3.71
  -2  11  -2   23.38    3.42
   2 -11   2   24.27    4.03
  -2  11  -3    4.83    3.22
   2 -11   3   -1.61    3.62
  -2  11  -4    1.05    3.11
   2 -11   4   -5.28    3.71
  -2  11  -5   42.03    3.63
   2 -11   5   31.67    4.20
  -2  11  -6   49.87    3.76
   2 -11   6   45.43    4.57
  -2  11  -7   -0.20    3.16
   2 -11   7    4.04    3.97
  -2  11  -8   21.79    3.57
   2 -11   8   29.09    4.45
  -2  11  -9    5.72    3.25
   2 -11   9    0.00    4.18
  -2  10   6  977.36   34.72
  -2  10   6  962.32   34.27
  -2  10   5  837.85   29.79
  -2  10   5  821.24   29.35
  -2  10   4 1545.20   54.50
  -2  10   4 1570.27   55.31
  -2  10   3 1277.94   45.14
  -2  10   3 1329.17   46.95
  -2  10   2 2007.17   70.58
  -2  10   2 1907.32   67.04
  -2  10   1  929.53   32.97
  -2  10   1  956.47   33.97
  -2  10   0  348.19   13.01
   2 -10   0  325.43   12.25
  -2  10  -1  249.89    9.63
   2 -10   1  247.49    9.71
  -2  10  -2  228.75    8.90
   2 -10   2  221.44    8.87
  -2  10  -3  640.29   23.03
   2 -10   3  592.95   21.47
  -2  10  -4   50.41    3.54
   2 -10   4   45.83    3.94
  -2  10  -5  193.48    7.75
   2 -10   5  171.79    7.51
  -2  10  -6   34.90    3.26
   2 -10   6   29.59    3.99
  -2  10  -7  337.38   12.57
   2 -10   7  318.89   12.33
  -2  10  -8  595.58   21.39
   2 -10   8  536.68   19.73
  -2  10  -9  303.01   11.37
   2 -10   9  293.38   11.53
  -2  10 -10  411.20   15.09
   2 -10  10  428.22   16.06
  -2   9   7   53.93    4.38
  -2   9   7   57.86    4.14
  -2   9   6   59.37    4.69
  -2   9   6   67.75    4.41
  -2   9   5   55.41    4.32
  -2   9   5   68.36    4.27
  -2   9   4    4.62    3.50
  -2   9   4    6.67    3.26
  -2   9   3   51.87    3.81
  -2   9   3   57.77    3.65
  -2   9   2   -0.76    2.93
  -2   9   2   -3.13    2.60
  -2   9   1    6.17    2.88
   2  -9  -1    3.92    2.60
  -2   9   0  179.60    7.32
   2  -9   0  173.40    7.16
  -2   9  -1    2.12    2.72
   2  -9   1    4.87    3.04
  -2   9  -2   92.84    4.47
   2  -9   2   81.61    4.43
  -2   9  -3  223.86    8.75
   2  -9   3  203.45    8.15
  -2   9  -4  220.55    8.56
   2  -9   4  195.76    7.91
  -2   9  -5   16.69    2.80
   2  -9   5   11.76    3.36
  -2   9  -6   26.92    3.09
   2  -9   6   32.01    4.00
  -2   9  -7   46.31    3.49
   2  -9   7   46.31    4.18
  -2   9  -8  170.45    7.04
   2  -9   8  154.09    7.20
  -2   9  -9  104.12    4.88
   2  -9   9  101.14    5.84
  -2   9 -10   15.31    3.27
   2  -9  10   18.43    4.12
  -2   9 -11   67.60    4.30
   2  -9  11   72.38    5.67
  -2   8   8   94.37    5.35
  -2   8   8  106.64    5.59
  -2   8   7  106.76    5.45
  -2   8   7  105.83    5.45
  -2   8   6   42.34    3.70
  -2   8   6   46.77    3.46
  -2   8   5   99.43    5.26
  -2   8   5  100.32    4.78
  -2   8   4  139.60    6.04
  -2   8   4  151.26    6.37
  -2   8   3  868.93   30.90
  -2   8   3  861.73   30.58
  -2   8   2  397.73   14.56
  -2   8   2  376.51   13.77
  -2   8   1  443.99   16.14
   2  -8  -1  434.43   15.82
  -2   8   0  591.36   21.22
   2  -8   0  563.48   20.27
  -2   8  -1  965.63   34.23
   2  -8   1  883.63   31.41
  -2   8  -2 3624.56  127.00
   2  -8   2 3283.87  115.14
  -2   8  -3  634.18   22.69
   2  -8   3  566.51   20.46
  -2   8  -4  720.66   25.69
   2  -8   4  650.14   23.39
  -2   8  -5  902.05   32.02
   2  -8   5  855.39   30.51
  -2   8  -6 1301.87   45.97
   2  -8   6 1203.23   42.61
  -2   8  -7 2398.77   84.21
   2  -8   7 2340.36   82.29
  -2   8  -8 1327.47   46.83
   2  -8   8 1288.18   45.67
  -2   8  -9 1766.96   62.14
   2  -8   9 1670.90   59.00
  -2   8 -10 2053.10   72.07
   2  -8  10 1990.61   70.10
  -2   8 -11 1806.70   63.50
   2  -8  11 1650.17   58.32
  -2   8 -12  798.08   28.38
   2  -8  12  751.40   27.12
  -2   7  10   -3.00    3.50
  -2   7  10    4.39    4.10
  -2   7   9    5.79    4.13
  -2   7   9    5.18    3.40
  -2   7   8    9.12    3.38
  -2   7   8   12.50    3.47
  -2   7   7   10.77    3.30
  -2   7   7    1.85    3.10
  -2   7   6  102.97    5.05
  -2   7   6  101.37    4.93
  -2   7   5   15.67    2.72
  -2   7   5   11.64    2.84
  -2   7   4   42.12    3.35
  -2   7   4   48.11    3.15
  -2   7   3   96.87    4.62
  -2   7   3   96.79    4.38
  -2   7   2   29.74    2.91
  -2   7   2   30.18    2.67
  -2   7   1  269.25   10.09
   2  -7  -1  271.55   10.17
  -2   7   0    1.51    2.14
   2  -7   0    0.59    2.42
  -2   7  -1  244.92    9.28
   2  -7   1  219.01    8.41
  -2   7  -2  434.80   15.79
   2  -7   2  401.87   14.68
  -2   7  -3  100.81    4.53
   2  -7   3   98.35    4.60
  -2   7  -4   67.76    3.66
   2  -7   4   65.13    3.85
  -2   7  -5   78.10    3.97
   2  -7   5   73.05    4.10
  -2   7  -6    0.40    2.43
   2  -7   6   -4.54    3.11
  -2   7  -7   68.71    3.83
   2  -7   7   51.03    3.71
  -2   7  -8   47.71    3.52
   2  -7   8   47.51    4.16
  -2   7  -9    8.06    2.96
   2  -7   9   10.79    3.69
  -2   7 -10   97.05    4.86
   2  -7  10   95.89    5.39
  -2   7 -11  123.10    5.61
   2  -7  11  120.16    5.93
  -2   7 -12   21.88    3.37
   2  -7  12   16.57    4.13
  -2   6  11  238.30    9.43
  -2   6  11  249.00   10.04
  -2   6  10  551.77   20.07
  -2   6  10  517.36   18.74
  -2   6   9  618.92   22.14
  -2   6   9  633.84   22.86
  -2   6   8  498.18   18.04
  -2   6   8  520.27   18.96
  -2   6   7   15.98    3.36
  -2   6   7   16.38    3.04
  -2   6   6  863.31   30.63
  -2   6   6  891.67   31.75
  -2   6   5  757.22   27.01
  -2   6   5  814.97   28.96
  -2   6   4  802.53   28.54
  -2   6   4  831.54   29.49
  -2   6   3  357.44   13.14
  -2   6   3  347.83   12.66
  -2   6   2  129.38    5.43
  -2   6   2  126.29    5.12
  -2   6   1 1959.62   68.84
   2  -6  -1 1959.22   68.80
  -2   6   0 3004.53  105.28
   2  -6   0 2768.33   97.06
  -2   6  -1 6004.58  210.12
   2  -6   1 5450.79  190.78
  -2   6  -2 4292.48  150.26
   2  -6   2 3825.66  133.96
  -2   6  -3 5838.52  204.25
   2  -6   3 5387.28  188.46
  -2   6  -4 3322.87  116.44
   2  -6   4 2849.42   99.92
  -2   6  -5 2799.93   98.18
   2  -6   5 2514.30   88.26
  -2   6  -6 4049.13  141.70
   2  -6   6 3792.43  132.87
  -2   6  -7  588.50   21.15
   2  -6   7  560.63   20.35
  -2   6  -8  561.99   20.19
   2  -6   8  565.18   20.52
  -2   6  -9   44.03    3.44
   2  -6   9   45.50    4.13
  -2   6 -10   31.56    3.25
   2  -6  10   37.43    4.21
  -2   6 -11   10.39    2.98
   2  -6  11    8.30    3.82
  -2   6 -12  336.25   12.50
   2  -6  12  326.50   12.50
  -2   6 -13   96.94    4.96
   2  -6  13   90.64    5.48
  -2   5  11   21.99    3.52
  -2   5  11   18.06    3.73
  -2   5  10   91.67    5.00
  -2   5  10   83.52    4.40
  -2   5   9    8.15    3.57
  -2   5   9   12.30    2.81
  -2   5   8    0.92    3.20
  -2   5   8    0.48    2.64
  -2   5   7  114.42    5.31
  -2   5   7  115.02    5.23
  -2   5   6    9.95    2.67
  -2   5   6   16.48    2.67
  -2   5   5    5.48    2.58
  -2   5   5    5.20    2.31
  -2   5   4    1.82    2.06
  -2   5   4    5.27    2.10
  -2   5   3   -0.20    1.90
  -2   5   3   -0.59    1.74
  -2   5   2    8.14    1.90
  -2   5   2    6.75    1.62
  -2   5   1    2.80    1.62
   2  -5  -1    2.92    1.73
  -2   5   0   35.63    2.32
   2  -5   0   34.18    2.17
  -2   5  -1   41.55    2.56
   2  -5   1   37.45    2.37
  -2   5  -2   66.00    3.20
   2  -5   2   57.15    3.04
  -2   5  -3  228.86    8.65
   2  -5   3  221.04    8.41
  -2   5  -4   15.58    2.30
   2  -5   4   17.80    2.57
  -2   5  -5   68.74    3.73
   2  -5   5   60.93    3.40
  -2   5  -6   20.87    2.66
   2  -5   6   20.83    2.86
  -2   5  -7  126.69    5.36
   2  -5   7  118.35    5.49
  -2   5  -8  444.37   16.18
   2  -5   8  401.73   14.87
  -2   5  -9   75.54    4.19
   2  -5   9   75.58    4.59
  -2   5 -10   27.11    3.13
   2  -5  10   15.84    3.53
  -2   5 -11   76.04    4.26
   2  -5  11   67.18    4.59
  -2   5 -12   -2.62    3.11
   2  -5  12    2.42    3.76
  -2   5 -13   -1.55    3.13
   2  -5  13    4.99    3.82
  -2   4  12  291.71   11.11
   2  -4 -12  280.40   10.62
  -2   4  11  537.63   19.38
   2  -4 -11  455.69   16.59
  -2   4  10 1212.34   42.77
   2  -4 -10 1167.31   41.24
  -2   4   9 1246.26   43.97
   2  -4  -9 1122.12   39.69
  -2   4   8   52.32    3.39
   2  -4  -8   48.81    3.35
  -2   4   7 5408.01  189.18
   2  -4  -7 5089.65  178.16
  -2   4   6 6124.24  214.44
  -2   4   6 5846.41  204.49
  -2   4   5 5979.93  209.30
  -2   4   5 6162.11  215.43
  -2   4   4 4992.52  174.64
  -2   4   4 5083.43  177.80
  -2   4   3 1303.73   45.86
  -2   4   3 1387.01   48.70
  -2   4   1 4865.79  170.24
  -2   4   0 1315.48   46.24
   2  -4   0 1218.60   42.85
  -2   4  -1 3397.13  118.95
   2  -4   1 3097.39  108.47
  -2   4  -2 3781.51  132.35
   2  -4   2 3489.93  122.19
  -2   4  -3  243.34    9.07
   2  -4   3  233.17    8.72
  -2   4  -4 3141.03  110.07
   2  -4   4 2969.30  104.07
  -2   4  -5 5618.76  196.55
   2  -4   5 5571.31  194.94
  -2   4  -6 3686.74  129.15
   2  -4   6 3536.59  123.92
  -2   4  -7 4348.00  152.24
   2  -4   7 4320.20  151.21
  -2   4  -8  555.01   20.03
   2  -4   8  568.94   20.58
  -2   4  -9 2202.84   77.40
   2  -4   9 2019.93   71.09
  -2   4 -10 1286.32   45.44
   2  -4  10 1214.19   43.00
  -2   4 -11 1059.52   37.49
   2  -4  11  957.76   34.15
  -2   4 -12  450.79   16.40
   2  -4  12  434.63   16.08
  -2   4 -13   26.82    3.53
   2  -4  13   24.91    4.05
  -2   3  13    5.27    3.45
   2  -3 -13    5.48    3.13
  -2   3  12    1.98    3.11
   2  -3 -12    4.57    3.19
  -2   3  11   -1.49    3.02
   2  -3 -11    0.20    2.97
  -2   3  10    4.21    2.69
   2  -3 -10    3.40    2.49
  -2   3   9   -1.64    2.59
   2  -3  -9    1.24    2.64
  -2   3   8    5.77    2.71
   2  -3  -8    2.34    2.43
  -2   3   7   -0.08    2.14
   2  -3  -7    0.16    2.22
  -2   3   6   13.07    2.10
   2  -3  -6   13.86    2.10
  -2   3   5  128.74    5.13
   2  -3  -5  115.74    4.67
  -2   3   4    1.58    1.50
   2  -3  -4    0.94    1.46
  -2   3   3   57.48    2.64
  -2   3   3   58.59    2.60
  -2   3   2   36.56    1.89
  -2   3   2   35.81    1.77
  -2   3   1    3.73    1.18
   2  -3  -1    2.29    1.02
  -2   3   0   18.13    1.38
   2  -3   0   18.64    1.38
  -2   3  -1   29.07    1.77
   2  -3   1   25.02    1.65
  -2   3  -2  529.69   18.85
   2  -3   2  507.26   18.07
  -2   3  -3   87.44    3.86
   2  -3   3   83.63    3.71
  -2   3  -4   11.59    1.97
   2  -3   4   12.62    2.05
  -2   3  -5   87.70    4.19
   2  -3   5   91.77    4.19
  -2   3  -6   26.84    2.50
   2  -3   6   24.74    2.61
  -2   3  -7 1593.23   56.11
   2  -3   7 1571.02   55.36
  -2   3  -8  314.93   11.78
   2  -3   8  323.28   12.14
  -2   3  -9   43.32    3.47
   2  -3   9   41.15    3.59
  -2   3 -10  664.23   23.84
   2  -3  10  640.59   23.12
  -2   3 -11  107.39    5.22
   2  -3  11  102.80    5.31
  -2   3 -12  155.92    6.50
   2  -3  12  158.90    7.03
  -2   3 -13   -1.13    3.29
   2  -3  13   -2.80    3.69
  -2   2  13  490.91   17.78
   2  -2 -13  489.28   17.70
  -2   2  12  677.33   24.15
   2  -2 -12  667.65   23.87
  -2   2  11  562.86   20.28
   2  -2 -11  579.72   20.84
  -2   2  10  430.72   15.72
   2  -2 -10  433.51   15.84
  -2   2   9   26.30    2.83
   2  -2  -9   28.69    2.99
  -2   2   8 1474.38   51.93
   2  -2  -8 1470.01   51.73
  -2   2   7 1338.82   47.15
   2  -2  -7 1250.86   44.10
  -2   2   6 2397.02   84.04
   2  -2  -6 2403.35   84.24
  -2   2   5 2598.61   91.05
   2  -2  -5 2602.17   91.18
  -2   2   4 1028.41   36.19
   2  -2  -4  954.36   33.64
  -2   2  -2  316.23   11.40
   2  -2   2  316.50   11.40
  -2   2  -3  259.79    9.56
   2  -2   3  264.68    9.72
  -2   2  -4  153.58    6.07
   2  -2   4  155.86    6.11
  -2   2  -5   18.00    2.33
   2  -2   5   11.17    2.21
  -2   2  -6   40.76    2.92
   2  -2   6   33.12    2.85
  -2   2  -7   86.33    4.33
   2  -2   7   83.24    4.29
  -2   2  -8  492.22   17.87
   2  -2   8  476.71   17.39
  -2   2  -9  452.73   16.61
   2  -2   9  427.58   15.77
  -2   2 -10 1356.39   47.88
   2  -2  10 1345.57   47.57
  -2   2 -11  837.26   29.81
   2  -2  11  833.23   29.77
  -2   2 -12  303.54   11.32
   2  -2  12  295.25   11.40
  -2   2 -13  595.70   21.36
   2  -2  13  619.25   22.38
  -2   1  14   89.72    4.91
   2  -1 -14   89.79    4.91
  -2   1  13   83.54    4.61
   2  -1 -13   90.49    4.77
  -2   1  12   30.14    3.06
   2  -1 -12   25.39    3.30
  -2   1  11  220.34    8.69
   2  -1 -11  201.75    7.98
  -2   1  10  539.32   19.48
   2  -1 -10  556.89   20.08
  -2   1   9  327.28   12.13
   2  -1  -9  317.77   11.85
  -2   1   8   43.00    2.97
   2  -1  -8   43.07    3.06
  -2   1   7  445.90   16.10
   2  -1  -7  454.99   16.42
  -2   1   6   30.32    2.25
   2  -1  -6   34.54    2.41
  -2   1   5   34.13    2.25
   2  -1  -5   34.68    2.21
  -2   1   4  620.89   21.95
   2  -1  -4  643.71   22.74
  -2   1   3   94.92    3.66
   2  -1  -3   98.10    3.77
  -2   1   0    1.33    0.94
   2  -1   0    3.57    0.87
  -2   1  -1  124.44    4.75
   2  -1   1  126.87    4.79
  -2   1  -2   16.43    1.61
   2  -1   2   15.96    1.65
  -2   1  -3    2.88    1.73
   2  -1   3    0.63    1.70
  -2   1  -4   42.18    2.64
   2  -1   4   34.93    2.45
  -2   1  -5   -0.87    2.41
   2  -1   5   -0.48    2.10
  -2   1  -6   88.59    4.15
   2  -1   6   95.16    4.48
  -2   1  -7  123.27    5.35
   2  -1   7  128.84    5.52
  -2   1  -8    4.10    2.67
   2  -1   8    1.19    2.63
  -2   1  -9   66.99    3.83
   2  -1   9   60.28    4.08
  -2   1 -10   -2.16    2.76
   2  -1  10    2.69    3.21
  -2   1 -11   26.70    3.14
   2  -1  11   28.63    3.58
  -2   1 -12   -0.85    2.83
   2  -1  12    0.81    3.39
  -2   0  14 1011.42   35.83
   2   0 -14 1011.83   35.79
  -2   0  13 2164.18   75.93
   2   0 -13 2171.84   76.25
  -2   0  12 1917.36   67.41
   2   0 -12 1927.80   67.77
  -2   0  11 2826.79   99.11
   2   0 -11 2911.22  102.06
  -2   0  10 1957.08   68.77
   2   0 -10 2016.48   70.85
  -2   0   9 3943.67  138.13
   2   0  -9 4041.43  141.55
  -2   0   8 3012.74  105.60
   2   0  -8 3069.79  107.62
  -2   0   7 4940.95  172.81
   2   0  -7 5174.17  181.07
  -2   0   6  454.01   16.29
   2   0  -6  459.93   16.53
  -2   0   5   88.17    3.82
   2   0  -5   95.81    4.02
  -2   0   4  165.99    6.21
   2   0  -4  176.06    6.57
  -2   0   3 1236.72   43.41
   2   0  -3 1377.36   48.32
   2   0  -1 1788.44   62.69
   2   0   0 1061.21   37.25
   2   0   0 1015.68   35.69
  -2   0  -1 1775.15   62.23
   2   0   1 1788.50   62.69
  -2   0  -2 3343.21  117.01
   2   0   2 3300.74  115.51
  -2   0  -4 1155.43   40.78
   2   0   4 1251.65   44.09
  -2   0  -5 2242.89   78.71
   2   0   5 2301.37   80.73
  -2   0  -6 3206.52  112.38
   2   0   6 3044.91  106.71
  -2   0  -7 1401.40   49.41
   2   0   7 1487.99   52.43
  -2   0  -8  522.42   18.89
   2   0   8  518.83   18.81
  -2   0  -9 2558.58   89.82
   2   0   9 2552.59   89.66
  -2   0 -10 1101.66   38.98
   2   0  10 1018.55   36.18
  -2   0 -11  535.86   19.32
   2   0  11  566.11   20.52
  -2  -1  14    1.70    2.92
   2   1 -14   -3.03    3.08
  -2  -1  13    7.17    3.26
   2   1 -13   18.21    3.26
  -2  -1  12  199.15    7.86
   2   1 -12  212.55    8.43
  -2  -1  11  215.77    8.56
   2   1 -11  246.19    9.47
  -2  -1  10  114.13    5.10
   2   1 -10  120.34    5.46
  -2  -1   9  156.70    6.52
   2   1  -9  160.07    6.67
  -2  -1   8  834.43   29.62
   2   1  -8  912.84   32.44
  -2  -1   7    2.96    2.06
   2   1  -7    4.66    2.10
  -2  -1   6  299.21   11.04
   2   1  -6  345.19   12.62
  -2  -1   5  370.67   13.38
   2   1  -5  403.14   14.56
  -2  -1   4  353.69   12.78
   2   1  -4  366.67   13.21
  -2  -1   1  423.68   15.07
   2   1  -1  434.29   15.43
   2   1   0  122.15    4.71
   2   1   0  119.72    4.68
   2   1   1   36.75    2.20
   2   1   1   42.26    2.36
  -2  -1  -2   40.69    2.56
   2   1   2   40.06    2.36
  -2  -1  -3  494.87   17.77
   2   1   3  544.91   19.51
  -2  -1  -4   15.79    2.10
   2   1   4   16.35    2.21
  -2  -1  -5   83.55    3.92
   2   1   5   76.18    3.64
  -2  -1  -6  151.50    6.23
   2   1   6  155.81    6.38
  -2  -1  -7   28.04    2.87
   2   1   7   26.13    2.78
  -2  -1  -8   96.26    4.87
   2   1   8  104.51    4.98
  -2  -1  -9   42.06    3.33
   2   1   9   39.85    3.64
  -2  -1 -10   34.39    3.54
   2   1  10   29.52    3.10
  -2  -1 -11   47.42    3.63
   2   1  11   44.92    3.39
  -2  -1 -12   25.28    3.78
   2   1  12   30.03    3.37
  -2  -2  15  126.61    5.89
   2   2 -15  129.83    6.10
  -2  -2  14  117.31    5.50
   2   2 -14  117.31    5.50
  -2  -2  13   53.08    3.82
   2   2 -13   68.06    4.31
  -2  -2  12   17.41    3.16
   2   2 -12   18.33    3.16
  -2  -2  11  390.23   14.38
   2   2 -11  446.28   16.26
  -2  -2  10  464.70   16.96
   2   2 -10  505.32   18.35
  -2  -2   9  642.78   23.07
   2   2  -9  665.41   23.86
  -2  -2   8 1003.44   35.52
   2   2  -8 1062.84   37.66
  -2  -2   7 1099.60   38.87
   2   2  -7 1179.41   41.72
  -2  -2   6  180.90    7.02
   2   2  -6  202.95    7.81
  -2  -2   5 2873.99  100.74
   2   2  -5 3018.92  105.78
  -2  -2   4 3022.70  105.86
   2   2  -4 3341.33  116.99
  -2  -2   2  976.90   34.43
   2   2  -2 1018.95   35.96
  -2  -2   1 1409.22   49.51
   2   2  -1 1452.84   51.08
  -2  -2   0 1654.34   58.10
   2   2   0 1594.19   56.07
   2   2   1 5268.32  184.17
  -2  -2  -3 3543.59  124.11
   2   2   3 3721.12  130.23
  -2  -2  -4 4711.74  164.83
   2   2   4 4893.56  171.28
  -2  -2  -5 6477.70  226.55
   2   2   5 7028.41  245.75
  -2  -2  -6 3174.03  111.27
   2   2   6 3416.36  119.73
  -2  -2  -8 3133.49  109.84
   2   2   8 3185.08  111.59
  -2  -2  -9 1106.54   39.13
   2   2   9 1064.40   37.61
  -2  -2 -10  291.15   11.08
   2   2  10  285.76   10.64
  -2  -2 -11   91.26    4.94
   2   2  11   92.72    4.49
  -2  -3  15   36.36    3.78
   2   3 -15   36.81    3.78
  -2  -3  14   31.26    3.64
   2   3 -14   37.73    3.68
  -2  -3  13   40.78    3.58
   2   3 -13   38.00    3.50
  -2  -3  12    4.01    3.05
   2   3 -12    8.90    3.00
  -2  -3  11    2.40    3.04
   2   3 -11    1.80    2.79
  -2  -3  10   12.63    3.03
   2   3 -10    5.54    2.74
  -2  -3   9    2.74    2.66
   2   3  -9    2.34    2.62
  -2  -3   8    4.55    2.46
   2   3  -8    2.93    2.50
  -2  -3   7    1.47    2.30
   2   3  -7    9.17    2.49
  -2  -3   6    4.53    2.21
   2   3  -6   10.97    2.25
  -2  -3   5    8.52    2.36
   2   3  -5   10.84    2.25
  -2  -3   4   73.90    3.71
   2   3  -4   89.26    4.10
  -2  -3   3   11.57    1.85
   2   3  -3   15.71    2.16
  -2  -3   2    6.96    1.85
   2   3  -2    5.59    2.05
  -2  -3   1  109.23    4.60
   2   3  -1  112.46    4.84
  -2  -3   0   59.49    3.11
   2   3   0   57.76    3.07
   2   3   1   75.50    3.54
   2   3   1   81.26    3.91
   2   3   2  263.14    9.78
   2   3   2  261.95    9.98
   2   3   3   30.00    2.41
   2   3   3   30.07    2.65
   2   3   4  367.09   13.66
   2   3   5  125.73    5.35
  -2  -3  -6   12.82    2.63
   2   3   6   12.34    2.54
  -2  -3  -7  122.33    5.39
   2   3   7  119.77    5.31
  -2  -3  -8   17.67    3.29
   2   3   8   12.27    2.85
  -2  -3  -9   33.60    3.62
   2   3   9   26.44    2.90
  -2  -3 -10    3.23    2.99
   2   3  10    6.23    2.78
  -2  -3 -11    2.68    3.61
   2   3  11    8.57    2.84
  -2  -4  15  620.78   22.30
   2   4 -15  702.44   25.10
  -2  -4  14  970.16   34.45
   2   4 -14  995.64   35.30
  -2  -4  13  650.76   23.44
   2   4 -13  708.34   25.33
  -2  -4  12   52.35    3.89
   2   4 -12   59.29    3.89
  -2  -4  11 2163.48   76.03
   2   4 -11 2259.82   79.39
  -2  -4  10 1003.87   35.67
   2   4 -10 1077.60   38.18
  -2  -4   9 1010.28   35.88
   2   4  -9 1094.14   38.79
  -2  -4   8  814.42   29.07
   2   4  -8  869.93   31.00
  -2  -4   7  201.78    7.92
   2   4  -7  216.74    8.47
  -2  -4   6 5310.08  185.77
   2   4  -6 5784.19  202.37
  -2  -4   5 4826.14  168.86
   2   4  -5 5457.53  191.03
  -2  -4   4 5488.44  191.97
   2   4  -4 5764.44  201.76
  -2  -4   3 5903.65  206.59
   2   4  -3 6731.27  235.39
  -2  -4   1 1327.22   46.79
   2   4  -1 1343.77   47.50
  -2  -4   0 3509.79  122.91
   2   4   0 3372.91  118.18
   2   4   1 2782.18   97.49
   2   4   1 2850.89  100.06
   2   4   3  512.59   18.46
   2   4   3  524.48   19.02
   2   4   4    8.74    2.27
   2   4   4   10.44    2.54
   2   4   5  631.24   22.60
   2   4   5  648.76   23.37
   2   4   6  430.31   15.69
   2   4   6  432.70   16.01
   2   4   7 1180.27   41.69
   2   4   7 1195.09   42.37
   2   4   8  764.16   27.17
   2   4   8  758.93   27.17
   2   4   9  215.53    8.55
   2   4   9  220.90    8.48
   2   4  10  630.40   22.50
   2   4  10  641.35   23.02
  -2  -5  15   61.09    4.44
  -2  -5  14   47.91    3.97
   2   5 -14   58.75    4.09
  -2  -5  13   59.76    4.35
   2   5 -13   64.92    4.07
  -2  -5  12  214.48    8.71
   2   5 -12  230.99    8.99
  -2  -5  11   63.46    4.04
   2   5 -11   64.02    3.80
  -2  -5  10  122.72    5.58
   2   5 -10  148.21    6.30
  -2  -5   9  108.72    5.25
   2   5  -9  110.79    5.14
  -2  -5   8   69.09    4.01
   2   5  -8   77.74    4.21
  -2  -5   7  218.34    8.57
   2   5  -7  246.75    9.51
  -2  -5   6   -3.80    2.30
   2   5  -6    6.57    2.65
  -2  -5   5   -0.59    2.30
   2   5  -5    0.39    2.53
  -2  -5   4  755.69   26.90
   2   5  -4  801.12   28.60
  -2  -5   3    7.74    2.17
   2   5  -3    7.97    2.52
  -2  -5   2  123.53    5.21
   2   5  -2  128.70    5.49
  -2  -5   1  115.17    4.98
   2   5  -1  123.82    5.53
   2   5   0    1.98    2.45
   2   5   1  261.66    9.77
   2   5   1  260.39    9.90
   2   5   2   39.64    3.01
   2   5   2   44.80    3.10
   2   5   3  627.23   22.44
   2   5   3  663.38   23.88
   2   5   4  694.76   24.80
   2   5   4  671.27   24.13
   2   5   5   50.94    3.52
   2   5   5   51.50    3.59
   2   5   6  231.73    8.97
   2   5   6  229.05    9.13
   2   5   7   12.17    3.14
   2   5   7   11.74    3.17
   2   5   8    3.43    2.70
   2   5   8    1.29    3.18
   2   5   9   45.97    3.48
   2   5   9   51.60    3.81
  -2  -6  14  159.09    6.85
   2   6 -14  184.89    7.53
  -2  -6  13   38.86    4.00
   2   6 -13   31.15    3.38
  -2  -6  12 1500.45   52.95
   2   6 -12 1744.49   61.40
  -2  -6  11 1195.86   42.32
   2   6 -11 1220.71   43.12
  -2  -6  10 1837.04   64.66
   2   6 -10 2095.19   73.61
  -2  -6   9  867.82   30.97
   2   6  -9  955.92   33.96
  -2  -6   8  595.11   21.52
   2   6  -8  618.18   22.28
  -2  -6   7 2231.00   78.43
   2   6  -7 2408.11   84.63
  -2  -6   6 2042.80   71.86
   2   6  -6 2243.08   78.88
  -2  -6   5 2612.57   91.72
   2   6  -5 2893.87  101.55
  -2  -6   4 1925.61   67.71
   2   6  -4 2111.72   74.28
  -2  -6   3 3382.47  118.53
  -2  -6   2 1851.88   65.17
   2   6  -2 1807.14   63.63
  -2  -6   1 4595.57  160.96
   2   6  -1 4464.84  156.41
  -2  -6   0 6388.18  223.45
   2   6   0 6106.64  213.65
   2   6   1 3387.24  118.68
   2   6   1 3340.39  117.09
   2   6   2 2669.87   93.62
   2   6   2 2548.16   89.49
   2   6   3  449.15   16.26
   2   6   3  450.74   16.53
   2   6   4 1397.05   49.22
   2   6   4 1286.00   45.55
   2   6   5  636.99   22.75
   2   6   5  638.59   23.08
   2   6   6  443.30   16.11
   2   6   6  454.95   16.72
   2   6   7   93.69    4.60
   2   6   7  106.44    5.24
   2   6   8    3.16    3.24
   2   6   8    9.56    3.19
  -2  -7  14   33.80    3.98
   2   7 -14   34.49    3.69
  -2  -7  13   12.89    3.56
   2   7 -13   18.67    3.11
  -2  -7  12   11.77    3.42
   2   7 -12   19.61    3.22
  -2  -7  11  124.65    5.90
   2   7 -11  141.59    6.19
  -2  -7  10    0.32    3.24
   2   7 -10    2.48    2.93
  -2  -7   9   88.82    4.76
   2   7  -9   99.32    4.76
  -2  -7   8   18.35    3.27
   2   7  -8   23.48    2.91
  -2  -7   7   -1.52    2.98
   2   7  -7   -0.28    2.71
  -2  -7   6  109.90    5.33
   2   7  -6  128.43    5.76
   2   7  -5    3.26    2.42
  -2  -7   4    4.49    2.54
   2   7  -4    3.37    2.38
  -2  -7   3    7.90    2.86
   2   7  -3    6.63    2.46
  -2  -7   2    0.95    2.78
   2   7  -2    0.20    2.51
  -2  -7   1   82.71    4.41
   2   7  -1   76.51    4.05
  -2  -7   0   46.87    3.58
   2   7   0   43.60    3.50
   2   7   1    0.00    2.35
   2   7   1   -0.20    2.59
   2   7   2   70.37    3.79
   2   7   2   69.30    4.19
   2   7   3   82.12    4.08
   2   7   3   93.61    4.92
   2   7   4    6.42    3.16
   2   7   4    2.29    2.85
   2   7   5  110.05    5.15
   2   7   5  103.81    5.02
   2   7   6   13.52    3.07
   2   7   6   11.18    3.23
   2   7   7   17.30    3.08
   2   7   7    9.97    3.08
  -2  -8  13  638.44   22.93
   2   8 -13  695.55   24.87
  -2  -8  12  842.62   30.04
   2   8 -12  937.50   33.27
  -2  -8  11 1596.91   56.28
   2   8 -11 1718.88   60.50
  -2  -8  10 1014.61   36.05
   2   8 -10 1150.72   40.72
  -2  -8   9  896.98   32.01
   2   8  -9  991.93   35.21
  -2  -8   8 1026.09   36.67
  -2  -8   7 1114.43   39.61
   2   8  -7 1241.01   43.93
  -2  -8   6 2060.92   72.55
   2   8  -6 2241.60   78.81
  -2  -8   5    5.06    2.94
   2   8  -5    7.93    3.03
  -2  -8   4    4.94    2.83
   2   8  -4    9.72    2.99
  -2  -8   3   35.42    3.31
   2   8  -3   41.01    3.51
  -2  -8   2   74.47    4.42
   2   8  -2   79.89    4.27
  -2  -8   1  145.14    6.50
   2   8  -1  138.87    6.22
  -2  -8   0  181.89    7.67
   2   8   0  174.62    7.39
   2   8   1   26.40    2.72
   2   8   1   31.88    3.60
   2   8   2  174.07    7.02
   2   8   2  175.12    7.45
   2   8   3  413.78   15.06
   2   8   3  439.90   16.19
   2   8   4  505.53   18.29
   2   8   4  454.78   16.60
   2   8   5 1486.48   52.29
   2   8   5 1454.15   51.24
   2   8   6  759.79   26.96
   2   8   6  769.93   27.45
  -2  -9  12  105.07    5.39
   2   9 -12  127.78    5.79
  -2  -9  11   34.24    4.12
   2   9 -11   49.10    4.00
   2   9 -10   72.78    4.23
  -2  -9   9   -1.09    3.46
   2   9  -9    4.14    2.85
  -2  -9   8  189.85    8.26
   2   9  -8  217.59    8.63
  -2  -9   7  305.96   11.82
   2   9  -7  335.09   12.62
  -2  -9   6   -5.60    3.53
   2   9  -6    4.28    2.93
  -2  -9   5    8.32    3.40
   2   9  -5    8.16    2.80
  -2  -9   4  156.08    6.84
   2   9  -4  160.16    6.80
  -2  -9   3   12.36    3.52
   2   9  -3   20.92    2.96
  -2  -9   2    6.81    3.48
   2   9  -2    4.24    2.80
  -2  -9   1    3.93    3.04
   2   9  -1   -2.04    2.89
  -2  -9   0    4.94    3.09
   2   9   0   -0.28    3.29
   2   9   1   50.71    3.34
   2   9   1   55.46    3.78
   2   9   2   25.12    3.14
   2   9   2   32.62    3.62
   2   9   3    3.02    2.62
   2   9   3    1.17    3.27
   2   9   4   31.33    3.03
   2   9   4   34.65    3.44
   2   9   5    6.94    3.13
   2   9   5    4.71    3.25
  -2 -10  11   11.71    4.05
   2  10 -11   20.54    3.16
  -2 -10  10    1.46    4.24
   2  10 -10   -0.20    2.95
  -2 -10   9   54.05    4.43
   2  10  -9   66.15    4.12
  -2 -10   8  398.66   15.06
   2  10  -8  450.28   16.44
  -2 -10   7 1407.96   49.84
   2  10  -7 1572.90   55.43
  -2 -10   6  346.92   13.15
   2  10  -6  374.29   13.91
  -2 -10   5  887.88   31.77
   2  10  -5 1032.11   36.64
  -2 -10   4 1433.35   50.74
   2  10  -4 1541.81   54.40
  -2 -10   3 1883.84   66.43
   2  10  -3 2081.95   73.22
  -2 -10   2 2578.36   90.55
   2  10  -2 2594.44   91.04
  -2 -10   1  910.14   32.57
   2  10  -1  876.73   31.23
   2  10   0 1063.81   37.73
   2  10   0  969.49   34.31
   2  10   1  957.50   33.88
   2  10   1  966.39   34.33
   2  10   2  669.81   23.96
   2  10   2  669.40   23.88
   2  10   3  309.96   11.52
   2  10   3  316.00   12.06
  -2 -11  10    6.78    4.50
   2  11 -10    8.89    3.20
  -2 -11   9   -4.78    4.25
   2  11  -9    2.43    2.99
  -2 -11   8   18.61    3.81
   2  11  -8   28.68    3.36
  -2 -11   7    9.21    3.56
   2  11  -7   10.06    3.07
  -2 -11   6    0.61    3.43
   2  11  -6   -1.13    2.95
  -2 -11   5   18.13    3.92
   2  11  -5   26.24    3.47
  -2 -11   4   44.77    4.36
   2  11  -4   38.59    3.43
  -2 -11   3   16.72    3.43
   2  11  -3   17.16    3.07
  -2 -11   2    6.47    3.76
   2  11  -2   -0.72    2.95
  -2 -11   1    5.22    3.84
   2  11  -1    7.09    3.07
   2  11   0    1.95    2.76
   2  11   0    0.40    3.44
   2  11   1    2.68    3.09
   2  11   1   -3.49    3.69
  -2 -12   7   18.15    3.90
   2  12  -7   24.45    3.41
  -2 -12   6  121.84    6.09
   2  12  -6  129.70    5.80
  -2 -12   5   27.51    4.26
   2  12  -5   22.32    3.65
  -2 -12   4  405.25   15.22
   2  12  -4  456.15   16.63
  -2 -12   3  603.80   22.00
   2  12  -3  602.98   21.73
  -2 -12   2  516.57   18.98
   2  12  -2  481.62   17.51
  -3  12   0  132.23    5.97
  -3  12   0  132.84    6.38
  -3  12  -1  660.80   23.75
   3 -12   1  611.28   22.24
  -3  12  -2  493.77   17.93
   3 -12   2  460.50   17.12
  -3  12  -3  490.09   17.85
   3 -12   3  470.62   17.53
  -3  12  -4  700.48   25.08
   3 -12   4  635.95   23.18
  -3  12  -5  968.61   34.36
   3 -12   5  923.53   33.02
  -3  12  -6  190.03    7.96
   3 -12   6  158.15    7.64
  -3  11   3   -3.65    3.65
  -3  11   3    0.90    3.73
  -3  11   2    0.04    3.44
  -3  11   2    2.99    3.48
  -3  11   1    5.50    3.39
  -3  11   1    8.82    3.59
  -3  11   0    4.04    3.36
   3 -11   0    6.43    3.59
  -3  11  -1    1.21    3.27
   3 -11   1    1.37    3.56
  -3  11  -2   52.31    3.67
   3 -11   2   41.25    4.20
  -3  11  -3    0.92    3.07
   3 -11   3    2.22    3.56
  -3  11  -4   27.62    3.19
   3 -11   4   21.28    3.88
  -3  11  -5  100.57    5.02
   3 -11   5   92.68    5.45
  -3  11  -6    3.77    3.36
   3 -11   6    3.16    4.17
  -3  11  -7   48.93    3.82
   3 -11   7   56.83    5.10
  -3  11  -8   24.89    3.45
   3 -11   8   24.73    4.71
  -3  10   6  253.00   10.33
  -3  10   6  267.60   10.49
  -3  10   5  568.89   20.68
  -3  10   5  544.16   19.67
  -3  10   4  733.76   26.17
  -3  10   4  722.84   25.89
  -3  10   3 1690.15   59.54
  -3  10   3 1656.64   58.33
  -3  10   2 1368.96   48.36
  -3  10   2 1298.43   45.82
  -3  10   1  832.29   29.62
  -3  10   1  892.26   31.76
  -3  10   0 1243.26   43.95
   3 -10   0 1190.19   42.10
  -3  10  -1  956.05   33.96
   3 -10   1  906.62   32.23
  -3  10  -2 1751.85   61.63
   3 -10   2 1591.94   56.13
  -3  10  -3  657.48   23.55
   3 -10   3  617.29   22.26
  -3  10  -4  705.31   25.22
   3 -10   4  671.94   24.17
  -3  10  -5  313.59   11.76
   3 -10   5  280.34   10.95
  -3  10  -6  681.14   24.34
   3 -10   6  638.41   23.09
  -3  10  -7 1083.20   38.31
   3 -10   7 1061.00   37.79
  -3  10  -8  663.90   23.78
   3 -10   8  633.15   23.02
  -3  10  -9 1099.50   38.89
   3 -10   9 1084.90   38.66
  -3   9   7    4.05    3.73
  -3   9   7    0.00    3.69
  -3   9   5    2.55    3.59
  -3   9   5   -5.48    3.38
  -3   9   4   21.38    3.38
  -3   9   4   20.00    3.55
  -3   9   3   34.02    3.30
  -3   9   3   24.82    3.50
  -3   9   2    9.95    2.89
  -3   9   2    5.34    2.76
  -3   9   1   80.45    4.33
   3  -9  -1   70.87    4.05
  -3   9   0    4.20    2.88
   3  -9   0   -0.60    2.73
  -3   9  -1  157.15    6.48
   3  -9   1  159.95    6.68
  -3   9  -2  440.16   16.00
   3  -9   2  418.15   15.29
  -3   9  -3   23.50    2.76
   3  -9   3   17.18    3.08
  -3   9  -4   33.89    3.09
   3  -9   4   19.86    3.24
  -3   9  -5    2.60    2.69
   3  -9   5    1.40    3.25
  -3   9  -6    6.70    2.81
   3  -9   6    2.53    3.45
  -3   9  -7  142.70    6.16
   3  -9   7  136.87    6.67
  -3   9  -8   50.48    3.67
   3  -9   8   47.06    4.36
  -3   9  -9   -3.59    3.07
   3  -9   9   -2.42    4.21
  -3   9 -10  103.31    5.11
   3  -9  10   86.93    5.55
  -3   8   8  804.70   28.73
  -3   8   8  750.41   26.90
  -3   8   7  771.75   27.62
  -3   8   7  791.14   28.23
  -3   8   6  600.78   21.62
  -3   8   6  582.25   21.14
  -3   8   5  534.18   19.28
  -3   8   5  532.57   19.31
  -3   8   4 1306.48   46.13
  -3   8   4 1316.10   46.36
  -3   8   3  584.06   20.96
  -3   8   3  536.85   19.24
  -3   8   2  464.58   16.77
  -3   8   2  447.81   16.14
  -3   8   1  417.41   15.12
   3  -8  -1  395.06   14.36
  -3   8   0  422.70   15.28
   3  -8   0  383.15   14.00
  -3   8  -1 2409.51   84.56
   3  -8   1 2217.36   77.86
  -3   8  -2   41.14    2.87
   3  -8   2   42.22    3.23
  -3   8  -3   96.24    4.38
   3  -8   3   82.13    4.35
  -3   8  -4    8.54    2.59
   3  -8   4    8.98    3.08
  -3   8  -5    3.52    2.60
   3  -8   5    4.63    3.19
  -3   8  -6  213.02    8.33
   3  -8   6  212.89    8.57
  -3   8  -7   31.81    3.13
   3  -8   7   27.16    3.73
  -3   8  -8   98.23    4.86
   3  -8   8   93.15    5.31
  -3   8  -9  111.55    5.28
   3  -8   9  107.68    5.64
  -3   8 -10  176.80    7.24
   3  -8  10  173.45    7.60
  -3   8 -11  303.74   11.45
   3  -8  11  303.22   11.85
  -3   7  10   34.39    4.71
  -3   7  10   45.40    4.35
  -3   7   9   48.34    4.17
  -3   7   9   62.14    4.53
  -3   7   8   16.26    3.27
  -3   7   8   15.28    3.43
  -3   7   7    8.49    3.21
  -3   7   7    9.49    3.21
  -3   7   6   39.29    3.53
  -3   7   6   46.39    3.41
  -3   7   5    7.72    2.80
  -3   7   5   11.29    2.48
  -3   7   4   18.77    2.75
  -3   7   4   14.45    2.39
  -3   7   3   10.44    2.39
  -3   7   3   15.47    2.19
  -3   7   2   46.45    2.78
  -3   7   2   44.70    2.67
  -3   7   1   14.60    2.07
   3  -7  -1   13.45    2.31
  -3   7   0  128.88    5.20
   3  -7   0  119.03    5.09
  -3   7  -1  536.04   19.15
   3  -7   1  466.89   16.81
  -3   7  -2   80.05    3.70
   3  -7   2   70.70    3.70
  -3   7  -3   60.33    3.30
   3  -7   3   58.06    3.62
  -3   7  -4   40.20    3.02
   3  -7   4   43.35    3.34
  -3   7  -5   34.79    2.83
   3  -7   5   25.43    3.07
  -3   7  -6  138.67    5.87
   3  -7   6  116.83    5.47
  -3   7  -7   14.04    2.84
   3  -7   7    8.36    3.28
  -3   7  -8  174.84    7.14
   3  -7   8  172.35    7.42
  -3   7  -9   71.00    4.15
   3  -7   9   70.64    4.55
  -3   7 -10   27.24    3.38
   3  -7  10   30.91    4.28
  -3   7 -11   18.79    3.24
   3  -7  11   19.88    4.09
  -3   7 -12    6.99    3.58
   3  -7  12    7.32    4.80
  -3   6  11  651.13   23.37
  -3   6  11  684.45   24.68
  -3   6  10  469.11   17.20
  -3   6  10  490.56   17.89
  -3   6   9  585.46   21.17
  -3   6   9  537.08   19.43
  -3   6   8  214.22    8.68
  -3   6   8  222.65    8.76
  -3   6   7  930.59   33.09
  -3   6   7  948.22   33.53
  -3   6   6  696.77   24.89
  -3   6   6  755.50   26.85
  -3   6   5  766.12   27.19
  -3   6   5  811.96   28.78
  -3   6   4  165.86    6.53
  -3   6   4  166.98    6.40
  -3   6   3   14.78    2.03
  -3   6   3   13.46    1.98
  -3   6   2  477.69   17.02
  -3   6   2  449.53   16.03
  -3   6   1  449.17   16.05
   3  -6  -1  444.81   15.94
  -3   6   0 1733.69   60.87
   3  -6   0 1576.77   55.44
  -3   6  -1 1968.60   69.06
   3  -6   1 1778.00   62.45
  -3   6  -2 3773.61  132.15
   3  -6   2 3455.71  121.09
  -3   6  -3 2615.64   91.71
   3  -6   3 2412.15   84.65
  -3   6  -4 5575.28  195.01
   3  -6   4 5483.95  191.95
  -3   6  -5 6168.03  215.74
   3  -6   5 5953.28  208.35
  -3   6  -6 5215.23  182.47
   3  -6   6 4948.29  173.31
  -3   6  -7 3548.55  124.30
   3  -6   7 3456.32  121.14
  -3   6  -8 1439.60   50.77
   3  -6   8 1430.40   50.57
  -3   6  -9 1173.66   41.48
   3  -6   9 1164.42   41.32
  -3   6 -10  602.69   21.63
   3  -6  10  581.74   21.20
  -3   6 -11 1052.18   37.20
   3  -6  11 1062.29   37.81
  -3   6 -12  303.02   11.41
   3  -6  12  322.31   12.43
  -3   5  11   63.90    4.82
  -3   5  11   60.42    4.25
  -3   5  10   36.49    3.95
  -3   5  10   39.60    3.55
  -3   5   9   39.21    3.94
  -3   5   9   38.21    3.21
  -3   5   8  168.99    7.04
  -3   5   8  162.26    6.53
  -3   5   7    1.32    2.92
  -3   5   7    0.31    2.52
  -3   5   6    2.03    2.23
  -3   5   6    1.28    2.51
  -3   5   5    4.61    2.11
  -3   5   5    8.35    1.91
  -3   5   4    1.83    1.74
  -3   5   4    1.63    1.67
  -3   5   3    0.99    1.47
  -3   5   3    5.58    1.51
  -3   5   2   22.60    1.78
  -3   5   2   19.55    1.51
  -3   5   1   40.92    2.17
   3  -5  -1   38.83    2.13
  -3   5   0  104.80    4.15
   3  -5   0   93.85    3.84
  -3   5  -1    5.81    1.51
   3  -5   1    1.82    1.62
  -3   5  -2   -2.02    1.78
   3  -5   2   -3.29    1.90
  -3   5  -3   14.93    2.22
   3  -5   3   12.78    1.90
  -3   5  -4   36.62    2.90
   3  -5   4   28.30    2.62
  -3   5  -5   89.79    4.16
   3  -5   5   83.36    4.21
  -3   5  -6  312.60   11.58
   3  -5   6  306.74   11.49
  -3   5  -7  154.18    6.50
   3  -5   7  130.69    5.82
  -3   5  -8   56.69    3.64
   3  -5   8   50.77    3.72
  -3   5  -9  168.71    6.94
   3  -5   9  159.48    7.02
  -3   5 -10  186.68    7.56
   3  -5  10  188.24    7.97
  -3   5 -11  111.13    5.21
   3  -5  11  113.35    5.82
  -3   5 -12   61.30    4.02
   3  -5  12   61.99    4.66
  -3   4  12  207.84    8.47
   3  -4 -12  172.94    7.13
  -3   4  11  140.04    6.29
   3  -4 -11  128.70    5.57
  -3   4  10   76.57    4.46
   3  -4 -10   74.61    4.06
  -3   4   9   44.14    3.40
   3  -4  -9   48.67    3.53
  -3   4   8 1117.97   39.49
   3  -4  -8 1066.86   37.69
  -3   4   7 1327.46   46.74
  -3   4   6 2123.39   74.47
  -3   4   6 2037.99   71.58
  -3   4   5 1572.83   55.26
  -3   4   5 1559.35   54.74
  -3   4   4  789.06   27.82
  -3   4   4  734.44   26.00
  -3   4   3 5485.39  192.11
  -3   4   3 5971.49  209.11
  -3   4   2 2905.60  101.99
  -3   4   2 2999.18  105.31
  -3   4   1 1469.97   51.69
   3  -4  -1 1353.16   47.63
  -3   4   0 1974.76   69.32
   3  -4   0 1763.27   61.94
  -3   4  -1 2565.54   89.90
   3  -4   1 2384.79   83.66
  -3   4  -2  180.69    6.79
   3  -4   2  165.34    6.32
  -3   4  -3  769.55   27.27
   3  -4   3  722.91   25.69
  -3   4  -4 1777.04   62.46
   3  -4   4 1747.36   61.39
  -3   4  -5 2438.61   85.63
   3  -4   5 2138.50   75.09
  -3   4  -6 2488.22   87.28
   3  -4   6 2402.40   84.35
  -3   4  -7  113.39    5.10
   3  -4   7  100.68    4.82
  -3   4  -8 1920.34   67.50
   3  -4   8 1913.95   67.38
  -3   4  -9 2076.39   72.97
   3  -4   9 1892.48   66.64
  -3   4 -10 1465.80   51.67
   3  -4  10 1473.84   52.07
  -3   4 -11  791.34   28.23
   3  -4  11  713.41   25.64
  -3   4 -12  144.16    6.16
   3  -4  12  146.50    6.73
  -3   3  13   22.57    3.85
   3  -3 -13   19.00    3.40
  -3   3  12  103.89    5.25
   3  -3 -12   94.03    4.73
  -3   3  11   23.94    3.22
   3  -3 -11   21.57    3.10
  -3   3  10    0.12    2.76
   3  -3 -10   -0.48    2.73
  -3   3   9  118.13    5.36
   3  -3  -9  117.53    5.27
  -3   3   8   -3.95    2.23
   3  -3  -8    8.13    2.39
  -3   3   7   12.71    2.07
   3  -3  -7   15.97    2.31
  -3   3   6   -0.64    1.71
   3  -3  -6    4.64    1.94
  -3   3   5   91.34    3.72
   3  -3  -5   84.10    3.60
  -3   3   4   -0.48    1.23
  -3   3   4   -0.87    1.14
  -3   3   3   38.66    1.77
  -3   3   3   40.75    1.77
  -3   3   2    2.09    0.70
  -3   3   2    3.19    0.59
  -3   3   1   23.29    1.10
   3  -3  -1   18.72    0.94
  -3   3   0   57.01    2.32
   3  -3   0   55.40    2.32
  -3   3  -1    2.52    1.26
   3  -3   1    0.59    1.31
  -3   3  -2    2.09    1.53
   3  -3   2    0.16    1.50
  -3   3  -3    1.18    1.62
   3  -3   3    1.86    1.86
  -3   3  -4   42.27    2.65
   3  -3   4   44.09    2.81
  -3   3  -5   91.58    4.40
   3  -3   5   80.69    3.96
  -3   3  -6   90.52    4.33
   3  -3   6   87.03    4.17
  -3   3  -7  178.24    7.13
   3  -3   7  159.18    6.57
  -3   3  -8   50.86    3.63
   3  -3   8   52.62    3.87
  -3   3  -9  331.84   12.42
   3  -3   9  300.31   11.50
  -3   3 -10    1.09    2.81
   3  -3  10    0.12    3.30
  -3   3 -11    6.54    2.75
   3  -3  11    3.67    3.56
  -3   3 -12   46.23    3.82
   3  -3  12   51.83    4.42
  -3   2  13 1039.40   36.89
   3  -2 -13 1091.22   38.55
  -3   2  12  436.97   15.92
   3  -2 -12  452.30   16.41
  -3   2  11  639.56   22.93
   3  -2 -11  655.62   23.44
  -3   2  10  251.60    9.72
   3  -2 -10  263.80    9.92
  -3   2   9  953.26   33.76
   3  -2  -9  970.40   34.33
  -3   2   8  955.64   33.83
   3  -2  -8  959.22   33.91
  -3   2   7 1697.84   59.63
   3  -2  -7 1672.86   58.77
  -3   2   6  826.51   29.20
   3  -2  -6  831.64   29.44
  -3   2   5  847.14   29.85
   3  -2  -5  830.54   29.34
   3  -2   3 7059.54  246.83
  -3   2  -4 3153.59  110.51
   3  -2   4 3370.18  118.06
  -3   2  -5 1957.50   68.83
   3  -2   5 1797.12   63.20
  -3   2  -6   48.11    3.10
   3  -2   6   40.61    2.97
  -3   2  -7  517.03   18.67
   3  -2   7  511.46   18.59
  -3   2  -8  540.60   19.57
   3  -2   8  542.59   19.73
  -3   2  -9  534.47   19.35
   3  -2   9  573.73   20.75
  -3   2 -10  352.21   13.03
   3  -2  10  364.27   13.63
  -3   2 -11   42.33    3.39
   3  -2  11   43.58    3.88
  -3   2 -12  237.00    9.13
   3  -2  12  239.04    9.45
  -3   1  14   17.13    3.82
   3  -1 -14   12.58    3.29
  -3   1  13   14.75    3.31
   3  -1 -13   14.18    3.19
  -3   1  12  139.68    6.11
   3  -1 -12  136.07    5.91
  -3   1  11   49.42    3.60
   3  -1 -11   49.57    3.56
  -3   1  10   13.09    2.79
   3  -1 -10    7.46    2.59
  -3   1   9   50.19    3.54
   3  -1  -9   48.65    3.27
  -3   1   8  228.20    8.74
   3  -1  -8  235.70    8.85
  -3   1   7   28.55    2.53
   3  -1  -7   23.87    2.22
  -3   1   6   21.50    1.93
   3  -1  -6   24.10    1.97
  -3   1   5  273.35    9.86
   3  -1  -5  282.55   10.22
  -3   1   4  325.16   11.62
   3  -1  -4  338.36   12.10
  -3   1   3  737.67   26.02
   3  -1  -3  854.97   30.15
   3  -1  -2 1211.34   43.20
   3  -1  -1   15.03    0.98
   3  -1  -1   13.72    1.02
  -3   1   0  467.41   16.52
   3  -1   0  501.64   17.74
  -3   1  -1   69.40    3.07
   3  -1   1   75.75    3.15
  -3   1  -2   17.57    1.81
   3  -1   2   15.13    1.90
  -3   1  -3  313.69   11.53
   3  -1   3  322.37   11.75
  -3   1  -4   33.52    2.65
   3  -1   4   32.41    2.65
  -3   1  -5   38.50    2.97
   3  -1   5   45.51    2.97
  -3   1  -6   15.57    2.51
   3  -1   6   18.47    2.54
  -3   1  -7   31.73    3.11
   3  -1   7   32.50    3.03
  -3   1  -8  169.58    7.07
   3  -1   8  159.32    6.75
  -3   1  -9   32.84    3.16
   3  -1   9   39.73    3.65
  -3   1 -10   64.44    3.86
   3  -1  10   66.01    4.35
  -3   1 -11    9.26    2.91
   3  -1  11    3.88    3.56
  -3   1 -12   44.51    3.70
   3  -1  12   45.86    3.98
  -3   0  14  403.27   14.83
   3   0 -14  370.20   13.70
  -3   0  13  140.02    6.26
   3   0 -13  137.73    5.89
  -3   0  12  901.87   32.01
   3   0 -12  972.18   34.42
  -3   0  11 1157.78   40.94
   3   0 -11 1214.21   42.86
  -3   0  10 2469.95   86.67
   3   0 -10 2672.15   93.68
  -3   0   9 3647.71  127.79
   3   0  -9 3791.64  132.76
  -3   0   8 6142.58  214.93
   3   0  -8 6301.20  220.40
  -3   0   7 3510.52  122.93
   3   0  -7 3690.93  129.22
  -3   0   6 1457.51   51.26
   3   0  -6 1557.01   54.69
  -3   0   5 1552.64   54.53
   3   0  -5 1634.25   57.37
  -3   0   4 3296.58  115.46
  -3   0   3 1149.02   40.37
   3   0  -3 1236.76   43.44
  -3   0   2  789.42   27.81
   3   0  -2  866.91   30.52
   3   0  -1   11.41    1.22
   3   0  -1   11.25    1.30
  -3   0  -1 1765.10   61.94
   3   0   1 1850.54   64.89
  -3   0  -2 2851.77   99.92
   3   0   2 2847.04   99.72
  -3   0  -3 1347.25   47.45
   3   0   3 1456.20   51.24
  -3   0  -4 1110.88   39.31
   3   0   4 1142.91   40.38
  -3   0  -5  950.44   33.73
   3   0   5 1029.32   36.42
  -3   0  -6  767.74   27.34
   3   0   6  789.60   28.14
  -3   0  -7  346.51   12.84
   3   0   7  346.75   12.87
  -3   0  -8 1565.62   55.26
   3   0   8 1497.63   52.82
  -3   0  -9  549.51   19.83
   3   0   9  565.97   20.52
  -3   0 -10  292.25   10.97
   3   0  10  303.38   11.53
  -3   0 -11  297.33   11.22
   3   0  11  297.69   11.34
  -3  -1  14    7.65    3.52
   3   1 -14    7.20    3.12
  -3  -1  13   12.37    3.35
   3   1 -13   16.64    3.22
  -3  -1  12   12.64    3.25
   3   1 -12   15.37    2.89
  -3  -1  11   58.18    3.60
   3   1 -11   55.38    3.68
  -3  -1  10   55.71    3.63
   3   1 -10   57.86    3.63
  -3  -1   9  137.77    5.88
   3   1  -9  153.74    6.24
  -3  -1   8   12.88    2.50
   3   1  -8   14.55    2.33
  -3  -1   7    0.28    2.21
   3   1  -7    2.26    1.93
  -3  -1   6  378.21   13.70
   3   1  -6  428.34   15.39
  -3  -1   5  657.58   23.37
   3   1  -5  686.35   24.33
  -3  -1   4  402.87   14.50
   3   1  -4  432.02   15.48
  -3  -1   3 1306.21   45.93
   3   1  -3 1404.20   49.35
  -3  -1   2  434.36   15.51
   3   1  -2  445.38   15.90
  -3  -1   1 2027.58   71.10
   3   1  -1 1923.32   67.48
   3   1   0   29.17    2.09
   3   1   0   28.46    1.93
   3   1   1   12.89    1.93
   3   1   1   11.71    1.70
  -3  -1  -2  273.84   10.17
   3   1   2  271.63   10.06
  -3  -1  -3   -1.10    2.10
   3   1   3   -0.44    2.02
  -3  -1  -4  235.11    9.02
   3   1   4  243.82    9.18
  -3  -1  -5  127.22    5.48
   3   1   5  147.93    6.19
  -3  -1  -6   45.76    3.22
   3   1   6   54.87    3.66
  -3  -1  -7    3.67    2.68
   3   1   7    4.47    2.83
  -3  -1  -8   26.03    3.09
   3   1   8   23.35    3.13
  -3  -1  -9    6.67    3.30
   3   1   9   10.57    3.14
  -3  -1 -10   -0.20    2.82
   3   1  10    7.47    3.23
  -3  -1 -11    0.93    2.96
   3   1  11    2.31    3.12
  -3  -2  15  971.16   34.46
   3   2 -15 1062.59   37.59
  -3  -2  14  517.69   18.81
   3   2 -14  564.61   20.34
  -3  -2  13  570.23   20.62
   3   2 -13  635.47   22.80
  -3  -2  12  191.78    7.86
   3   2 -12  211.87    8.34
  -3  -2  11  976.88   34.69
   3   2 -11 1119.57   39.57
  -3  -2  10  888.92   31.64
   3   2 -10  955.85   33.91
  -3  -2   9 1698.55   59.84
   3   2  -9 1867.02   65.64
  -3  -2   8  666.68   23.90
   3   2  -8  695.22   24.81
  -3  -2   7  392.94   14.32
   3   2  -7  409.40   14.91
  -3  -2   6 2138.33   75.11
   3   2  -6 2348.81   82.42
  -3  -2   5 1694.26   59.55
   3   2  -5 1809.42   63.57
  -3  -2   4 2641.89   92.60
   3   2  -4 3018.97  105.79
  -3  -2   3  176.82    6.73
   3   2  -3  189.74    7.29
  -3  -2   2  109.02    4.49
   3   2  -2  119.98    4.89
  -3  -2   1  282.49   10.40
   3   2  -1  271.89   10.09
   3   2   0  125.08    5.05
   3   2   0  132.09    5.40
   3   2   1 1140.72   40.23
   3   2   1 1140.72   40.35
   3   2   2  248.16    9.33
   3   2   2  247.45    9.52
   3   2   3  942.05   33.35
   3   2   3 1019.20   36.20
  -3  -2  -4 1490.38   52.57
   3   2   4 1580.37   55.67
  -3  -2  -5 2324.37   81.64
   3   2   5 2417.78   84.86
  -3  -2  -6 1314.97   46.44
   3   2   6 1429.37   50.46
  -3  -2  -7 4114.84  144.12
   3   2   7 4426.76  155.07
  -3  -2  -8 1562.38   55.06
   3   2   8 1558.37   54.94
  -3  -2  -9  724.07   25.83
   3   2   9  737.77   26.39
  -3  -2 -10  343.78   12.70
   3   2  10  369.56   13.72
  -3  -3  15  211.18    8.61
   3   3 -15  228.96    9.01
  -3  -3  14   39.10    3.92
   3   3 -14   51.55    3.84
  -3  -3  13   49.21    4.02
   3   3 -13   53.52    3.91
  -3  -3  12  130.85    5.98
   3   3 -12  162.78    6.82
  -3  -3  11  109.26    5.28
   3   3 -11  130.60    5.72
  -3  -3  10  100.00    4.98
   3   3 -10  106.05    5.02
  -3  -3   9   63.00    3.86
   3   3  -9   69.16    3.97
  -3  -3   8  149.78    6.31
   3   3  -8  168.73    6.86
  -3  -3   7    0.00    2.17
   3   3  -7    1.23    2.30
  -3  -3   6  310.54   11.50
   3   3  -6  347.01   12.84
  -3  -3   5  238.30    9.00
   3   3  -5  269.80   10.14
  -3  -3   4   18.77    2.21
   3   3  -4   20.55    2.41
  -3  -3   3   12.85    2.05
   3   3  -3   11.00    2.25
  -3  -3   2  266.07    9.90
   3   3  -2  287.76   10.76
  -3  -3   1   13.56    2.05
   3   3  -1   10.76    2.29
   3   3   0   25.10    2.60
   3   3   1   34.61    2.52
   3   3   1   34.02    2.72
   3   3   2    3.49    2.30
   3   3   2    0.00    2.41
   3   3   3    0.88    2.30
   3   3   3    5.15    2.70
   3   3   4    3.37    2.66
   3   3   4   -1.27    2.82
   3   3   5    3.78    2.74
   3   3   5    4.82    2.91
   3   3   6   95.88    5.03
   3   3   6   85.82    4.43
   3   3   7   30.54    3.25
   3   3   7   30.67    3.29
   3   3   8   44.58    3.62
   3   3   8   44.82    3.82
   3   3   9    8.76    3.23
   3   3   9   15.43    3.43
   3   3  10   28.08    3.57
   3   3  10   28.13    3.53
  -3  -4  15  402.65   14.91
   3   4 -15  464.72   16.94
  -3  -4  14  154.54    6.88
   3   4 -14  180.22    7.40
  -3  -4  13   35.65    3.66
   3   4 -13   42.86    3.66
  -3  -4  12  907.38   32.31
   3   4 -12  996.87   35.32
  -3  -4  11  624.39   22.52
   3   4 -11  640.79   23.00
  -3  -4  10  365.56   13.68
   3   4 -10  413.19   15.24
  -3  -4   9   96.31    4.81
   3   4  -9  117.91    5.45
  -3  -4   8    6.27    3.02
   3   4  -8   13.30    2.66
  -3  -4   7 1592.48   56.11
   3   4  -7 1725.62   60.75
  -3  -4   6 1567.67   55.23
   3   4  -6 1824.86   64.26
  -3  -4   5 1524.54   53.72
   3   4  -5 1722.57   60.67
  -3  -4   4 4447.73  155.71
   3   4  -4 4945.44  173.09
  -3  -4   3 6713.13  234.72
   3   4  -3 7100.12  248.39
  -3  -4   2 2474.60   86.85
   3   4  -2 2684.71   94.27
  -3  -4   1 7443.87  260.26
   3   4  -1 6570.68  229.92
  -3  -4   0 7236.61  253.01
   3   4   0 6872.80  240.51
   3   4   1 4101.79  143.65
   3   4   1 4113.67  144.12
   3   4   2 3192.29  111.87
   3   4   2 3182.78  111.67
   3   4   3  314.66   11.68
   3   4   3  325.62   12.28
   3   4   4 1401.94   49.43
   3   4   4 1488.76   52.57
   3   4   5 1078.68   38.22
   3   4   5 1111.83   39.42
   3   4   6 1449.39   51.16
   3   4   6 1451.39   51.23
   3   4   7  834.55   29.79
   3   4   7  861.09   30.67
   3   4   8  479.43   17.59
   3   4   9  675.58   24.32
   3   4   9  728.26   25.94
  -3  -5  15    6.06    3.99
   3   5 -15    0.32    3.38
  -3  -5  14    3.68    3.52
   3   5 -14    2.79    3.19
  -3  -5  13   43.46    3.91
   3   5 -13   54.63    3.91
  -3  -5  12   11.73    3.41
   3   5 -12   13.30    3.09
  -3  -5  11   -1.44    3.20
   3   5 -11    0.84    2.93
  -3  -5  10   -0.20    3.43
   3   5 -10    2.12    2.75
  -3  -5   9    6.29    2.98
   3   5  -9   14.02    2.79
  -3  -5   8    1.67    2.78
   3   5  -8    1.87    2.67
  -3  -5   7   -3.74    2.70
   3   5  -7   -1.31    2.54
  -3  -5   6   16.41    2.86
   3   5  -6   21.87    2.86
  -3  -5   5   11.17    2.50
   3   5  -5   13.94    2.77
  -3  -5   4   13.74    2.46
   3   5  -4   19.36    2.81
  -3  -5   3    4.94    2.33
   3   5  -3    5.26    2.65
  -3  -5   2   45.68    3.12
   3   5  -2   44.60    3.21
  -3  -5   1   18.77    2.50
   3   5  -1   26.62    3.05
  -3  -5   0   32.35    2.77
   3   5   0   29.61    3.10
   3   5   1   77.17    3.93
   3   5   1   73.56    4.09
   3   5   2  247.74    9.50
   3   5   2  218.74    8.75
   3   5   3  248.06    9.52
   3   5   3  255.11    9.88
   3   5   4    4.47    2.72
   3   5   4    5.79    2.75
   3   5   5  306.99   11.70
   3   5   5  283.39   10.86
   3   5   6    5.02    2.94
   3   5   7    5.89    2.86
   3   5   7    7.10    3.35
   3   5   8   41.50    3.89
   3   5   8   42.15    3.57
  -3  -6  14   25.69    3.81
   3   6 -14   32.22    3.57
  -3  -6  13  717.74   25.76
   3   6 -13  775.86   27.69
  -3  -6  12  655.74   23.62
   3   6 -12  692.35   24.78
  -3  -6  11  665.78   23.98
   3   6 -11  705.48   25.22
  -3  -6  10  436.80   16.12
   3   6 -10  508.80   18.44
  -3  -6   9  147.98    6.46
   3   6  -9  175.87    7.19
  -3  -6   8 1204.91   42.70
   3   6  -8 1364.25   48.20
  -3  -6   7  512.64   18.57
   3   6  -7  567.13   20.48
  -3  -6   6  428.23   15.73
   3   6  -6  494.97   18.08
  -3  -6   5  361.44   13.42
   3   6  -5  393.00   14.61
  -3  -6   4  964.54   34.28
   3   6  -4  988.34   35.20
  -3  -6   3   68.16    3.89
   3   6  -3   73.44    4.09
  -3  -6   2 1449.04   51.12
   3   6  -2 1568.51   55.40
  -3  -6   1 3244.92  113.80
   3   6  -1 3323.17  116.61
  -3  -6   0 2749.08   96.46
   3   6   0 2665.18   93.64
   3   6   1 3339.28  116.99
   3   6   1 3275.57  114.91
   3   6   2  518.21   18.75
   3   6   2  518.21   18.79
   3   6   4 1914.54   67.27
   3   6   4 1849.19   65.10
   3   6   5 1005.16   35.54
   3   6   5 1003.95   35.63
   3   6   6  415.51   15.13
   3   6   6  418.75   15.41
   3   6   7   10.44    2.96
   3   6   7    7.05    3.16
  -3  -7  14   33.56    3.98
   3   7 -14   35.68    3.69
  -3  -7  13  140.70    6.48
   3   7 -13  154.20    6.64
  -3  -7  12  115.44    5.68
   3   7 -12  122.62    5.64
  -3  -7  11  153.93    6.79
   3   7 -11  173.06    7.15
  -3  -7  10   86.87    4.89
   3   7 -10   89.68    4.53
  -3  -7   9   79.32    4.84
   3   7  -9   94.20    4.64
  -3  -7   8  123.22    5.78
   3   7  -8  137.56    5.95
  -3  -7   7  198.09    7.98
   3   7  -7  232.90    9.05
  -3  -7   6   -2.91    3.07
   3   7  -6   -1.99    2.71
  -3  -7   5    0.84    2.59
   3   7  -5    3.82    2.74
  -3  -7   4   20.10    2.78
   3   7  -4   17.94    2.91
  -3  -7   3   22.64    3.07
   3   7  -3   25.43    2.98
  -3  -7   2   -2.07    2.74
   3   7  -2   -1.43    2.59
  -3  -7   1   26.38    2.79
   3   7  -1   21.88    3.14
   3   7   0   27.41    3.32
   3   7   1    4.23    2.52
   3   7   1   -5.03    3.08
   3   7   2  124.73    5.40
   3   7   2  130.62    5.77
   3   7   3    5.38    2.89
   3   7   3    3.29    3.17
   3   7   4   49.66    3.54
   3   7   4   51.19    3.90
   3   7   5    2.18    2.58
   3   7   5    2.26    3.23
   3   7   6    0.77    2.76
   3   7   6   -1.66    2.92
  -3  -8  13  208.23    8.52
   3   8 -13  261.33   10.09
  -3  -8  12  887.33   31.60
   3   8 -12  987.94   35.00
  -3  -8  11  700.31   25.10
   3   8 -11  751.48   26.84
  -3  -8  10 1083.70   38.43
   3   8 -10 1192.63   42.17
  -3  -8   9 2382.81   83.72
   3   8  -9 2746.64   96.32
  -3  -8   8 3130.94  109.86
   3   8  -8 3442.11  120.63
  -3  -8   7 5087.53  178.10
   3   8  -7 6031.44  210.98
  -3  -8   6 2313.28   81.24
   3   8  -6 2717.27   95.35
  -3  -8   5 2800.09   98.20
   3   8  -5 3044.51  106.75
  -3  -8   4 1571.73   55.38
   3   8  -4 1615.25   56.91
  -3  -8   3 1781.76   62.75
   3   8  -3 1907.98   67.14
  -3  -8   2 1378.78   48.71
  -3  -8   1  434.84   16.24
   3   8  -1  378.84   14.04
   3   8   0  258.61    9.82
   3   8   0  267.82   10.42
   3   8   1   76.81    4.01
   3   8   1   71.74    4.18
   3   8   2  232.18    9.21
   3   8   2  216.78    8.49
   3   8   3  180.95    7.26
   3   8   3  164.10    6.82
   3   8   4  783.87   27.86
   3   8   4  776.59   27.73
   3   8   5  233.85    8.93
   3   8   5  254.05    9.94
  -3  -9  12    8.63    3.93
   3   9 -12    6.56    3.32
  -3  -9  11    4.85    3.27
   3   9 -11    1.30    3.11
  -3  -9  10   14.47    3.31
   3   9 -10   16.41    3.27
  -3  -9   9   53.90    3.86
   3   9  -9   58.60    3.90
  -3  -9   8  222.91    8.84
   3   9  -8  249.31    9.69
  -3  -9   7   99.83    4.98
   3   9  -7  106.77    5.18
  -3  -9   6   28.80    3.45
   3   9  -6   36.61    3.61
  -3  -9   5  202.75    8.34
   3   9  -5  235.86    9.27
   3   9  -4   10.78    3.05
  -3  -9   3   43.67    3.65
   3   9  -3   53.86    3.81
  -3  -9   2    2.93    3.49
   3   9  -2    0.96    3.29
  -3  -9   1    8.96    3.50
   3   9  -1    7.39    3.37
   3   9   0   90.77    4.42
   3   9   0   97.53    5.07
   3   9   1   14.47    2.62
   3   9   1   14.51    3.11
   3   9   2    5.37    2.58
   3   9   2    2.38    3.07
   3   9   3   20.98    2.96
   3   9   3   27.87    3.64
   3   9   4   14.91    2.84
   3   9   4   14.42    3.74
  -3 -10  11    9.20    3.69
   3  10 -11   17.56    3.20
  -3 -10  10   35.66    3.93
   3  10 -10   44.48    3.64
  -3 -10   9   27.07    3.76
   3  10  -9   31.27    3.47
  -3 -10   8  327.92   12.42
   3  10  -8  392.42   14.52
  -3 -10   7   61.79    4.40
  -3 -10   6   56.75    4.43
   3  10  -6   79.87    4.43
  -3 -10   5   82.38    4.80
   3  10  -5   88.06    4.67
  -3 -10   4  329.48   12.53
   3  10  -4  372.57   13.82
  -3 -10   3  788.01   28.32
   3  10  -3  785.60   28.04
  -3 -10   2  135.84    6.49
   3  10  -2  118.86    5.48
  -3 -10   1  459.42   16.99
   3  10  -1  465.48   16.99
   3  10   0  330.08   12.45
   3  10   0  314.59   11.68
   3  10   1  204.36    8.06
   3  10   1  201.73    8.22
   3  10   2  158.79    6.98
   3  10   2  143.11    5.97
   3  11  -9   18.47    3.78
  -3 -11   8    5.06    3.93
   3  11  -8    2.11    2.96
  -3 -11   7   -3.19    3.60
   3  11  -7    3.36    2.99
  -3 -11   6   21.90    3.64
   3  11  -6   18.65    3.07
  -3 -11   5   15.30    3.88
   3  11  -5   18.17    3.23
  -3 -11   4    4.73    3.36
   3  11  -4    7.69    2.99
  -3 -11   3   -4.85    3.81
   3  11  -3    8.42    3.03
  -3 -11   2    5.39    3.93
   3  11  -2    7.37    3.17
   3  11  -1   33.93    3.45
   3  11  -1   43.06    3.33
  -4  12  -2  375.12   14.07
  -4  11   3    9.39    4.26
  -4  11   3   14.06    4.23
  -4  11   2   29.21    4.14
  -4  11   2   31.28    3.85
  -4  11   1   26.62    3.85
  -4  11   1   25.65    3.77
  -4  11   0   14.33    3.48
  -4  11  -1   62.16    4.21
   4 -11   1   64.62    4.37
  -4  11  -2    4.98    3.16
   4 -11   2    7.61    3.48
  -4  11  -3   -3.84    3.16
   4 -11   3   -3.72    3.81
  -4  11  -4   58.43    4.13
   4 -11   4   49.89    4.70
  -4  11  -5   -5.44    3.28
   4 -11   5    4.30    4.50
  -4  11  -6   42.95    3.90
   4 -11   6   37.68    4.87
  -4  11  -7    7.73    3.61
  -4  10   5  136.53    6.62
  -4  10   5  143.79    6.94
  -4  10   4  716.94   25.68
  -4  10   4  739.62   26.49
  -4  10   3  495.66   18.03
  -4  10   3  498.49   18.11
  -4  10   2  396.01   14.53
  -4  10   2  439.61   16.07
  -4  10   1  607.26   21.78
  -4  10   1  632.26   22.70
  -4  10   0  529.85   19.10
   4 -10   0  499.22   18.05
  -4  10  -1 1324.32   46.72
   4 -10   1 1237.32   43.70
  -4  10  -2  421.70   15.43
   4 -10   2  408.01   14.98
  -4  10  -3  362.47   13.38
   4 -10   3  314.73   11.84
  -4  10  -4   72.90    4.32
   4 -10   4   69.00    4.56
  -4  10  -5  386.29   14.17
   4 -10   5  373.05   14.08
  -4  10  -6  535.69   19.28
   4 -10   6  509.41   18.72
  -4  10  -7  508.35   18.39
   4 -10   7  512.40   18.91
  -4  10  -8  654.44   23.43
   4 -10   8  650.38   23.75
  -4   9   7   -2.11    4.35
  -4   9   7    1.26    3.69
  -4   9   6   18.63    4.09
  -4   9   6   19.44    3.89
  -4   9   5   20.36    3.76
  -4   9   5   16.89    3.52
  -4   9   4   -0.85    3.06
  -4   9   4   -0.60    3.06
  -4   9   3    0.60    2.86
  -4   9   3    3.66    3.06
  -4   9   2    4.74    2.61
  -4   9   2    3.98    2.74
  -4   9   1   41.51    3.05
  -4   9   1   39.14    3.05
  -4   9   0   -1.36    2.61
   4  -9   0   -2.61    2.61
  -4   9  -1  120.13    5.18
   4  -9   1  110.94    5.14
  -4   9  -2   34.26    2.96
   4  -9   2   30.17    3.09
  -4   9  -3   12.53    2.81
   4  -9   3   11.12    3.17
  -4   9  -4   -0.40    2.89
   4  -9   4    4.54    3.30
  -4   9  -5   11.18    3.14
   4  -9   5   14.16    3.37
  -4   9  -6   55.00    3.62
   4  -9   6   51.12    4.27
  -4   9  -7   -1.81    2.95
   4  -9   7    3.07    3.76
  -4   9  -8   17.44    3.23
   4  -9   8   15.95    4.57
  -4   9  -9   21.83    3.40
   4  -9   9   24.63    4.50
  -4   8   8  680.89   24.42
  -4   8   8  664.67   24.01
  -4   8   7  514.23   18.68
  -4   8   7  466.52   17.14
  -4   8   6  647.46   23.18
  -4   8   6  633.76   22.82
  -4   8   5 1896.74   66.73
  -4   8   5 1997.68   70.18
  -4   8   4 1175.26   41.46
  -4   8   4 1219.41   43.07
  -4   8   3 1495.13   52.58
  -4   8   3 1505.55   53.02
  -4   8   2 1563.71   54.99
  -4   8   2 1424.42   50.11
  -4   8   1 2351.70   82.53
  -4   8   0 6670.69  233.45
   4  -8   0 6163.09  215.79
  -4   8  -1 2416.18   84.76
   4  -8   1 2260.72   79.40
  -4   8  -2 1959.50   68.80
   4  -8   2 1811.20   63.72
  -4   8  -3 1772.34   62.24
   4  -8   3 1657.95   58.36
  -4   8  -4 1437.40   50.60
   4  -8   4 1359.73   48.00
  -4   8  -5 1349.59   47.55
   4  -8   5 1365.62   48.20
  -4   8  -6  274.49   10.36
   4  -8   6  268.10   10.40
  -4   8  -7  178.99    7.25
   4  -8   7  173.04    7.57
  -4   8  -8    6.86    3.02
   4  -8   8    7.54    3.92
  -4   8  -9   32.94    3.48
   4  -8   9   26.75    4.29
  -4   8 -10   25.58    3.49
   4  -8  10   25.58    4.34
  -4   7   9    8.18    3.81
  -4   7   9    2.02    3.53
  -4   7   8    1.94    3.43
  -4   7   8    4.24    3.18
  -4   7   7   -0.44    3.02
  -4   7   7    7.65    3.10
  -4   7   6   11.56    2.93
  -4   7   6   10.80    2.81
  -4   7   5   36.01    2.93
  -4   7   5   41.14    2.89
  -4   7   4   11.60    2.35
  -4   7   4   16.19    2.24
  -4   7   3   38.88    2.68
  -4   7   3   43.88    2.63
  -4   7   2   35.78    2.43
  -4   7   2   35.45    2.23
  -4   7   1   45.95    2.71
   4  -7  -1   43.51    2.55
  -4   7   0  364.38   13.06
   4  -7   0  355.74   12.90
  -4   7  -1    8.72    1.95
   4  -7   1    6.41    2.15
  -4   7  -2   50.54    2.83
   4  -7   2   53.76    3.19
  -4   7  -3  124.35    5.11
   4  -7   3  114.27    5.15
  -4   7  -4   59.89    3.52
   4  -7   4   53.47    3.67
  -4   7  -5  329.78   12.11
   4  -7   5  326.10   12.20
  -4   7  -6   46.92    3.56
   4  -7   6   45.35    3.77
  -4   7  -7   98.50    4.74
   4  -7   7   88.62    4.98
  -4   7  -8  345.03   12.77
   4  -7   8  350.82   13.28
  -4   7  -9  179.05    7.27
   4  -7   9  185.32    7.95
  -4   7 -10   41.93    3.69
   4  -7  10   47.00    4.54
  -4   6  11  404.99   15.54
  -4   6  11  398.03   15.00
  -4   6  10  776.44   27.74
  -4   6  10  759.03   27.22
  -4   6   9  709.86   25.35
  -4   6   9  721.56   25.91
  -4   6   8 1197.49   42.27
  -4   6   8 1176.57   41.63
  -4   6   7 1159.55   40.91
  -4   6   7 1168.37   41.28
  -4   6   6 1794.77   63.05
  -4   6   6 1684.35   59.21
  -4   6   5  454.33   16.25
  -4   6   5  421.19   15.17
  -4   6   4  161.73    6.10
  -4   6   4  164.36    6.26
  -4   6   3   36.85    2.03
  -4   6   3   40.19    2.23
  -4   6   2   10.14    1.52
  -4   6   2   10.50    1.47
  -4   6   1  224.81    8.18
   4  -6  -1  216.23    7.95
  -4   6   0  165.34    6.12
   4  -6   0  156.55    5.96
  -4   6  -1   13.59    1.63
   4  -6   1   12.63    2.11
  -4   6  -2   37.76    2.31
   4  -6   2   32.67    2.71
  -4   6  -3  175.61    6.77
   4  -6   3  177.00    7.00
  -4   6  -4 1734.82   60.95
   4  -6   4 1695.38   59.67
  -4   6  -5  964.79   34.16
   4  -6   5  980.75   34.80
  -4   6  -6 1932.28   67.93
   4  -6   6 1879.90   66.13
  -4   6  -7  494.54   17.91
   4  -6   7  492.54   17.96
  -4   6  -8 1173.08   41.43
   4  -6   8 1222.51   43.36
  -4   6  -9 1036.08   36.64
   4  -6   9 1065.10   37.82
  -4   6 -10 1414.36   49.85
   4  -6  10 1413.15   49.92
  -4   6 -11  482.10   17.50
   4  -6  11  532.46   19.50
  -4   5  11    1.13    3.48
  -4   5  11    7.30    3.85
  -4   5  10    9.04    3.47
  -4   5  10   11.79    4.00
  -4   5   9  417.45   15.41
  -4   5   9  408.60   14.96
  -4   5   8   17.00    3.13
  -4   5   8   13.27    2.65
  -4   5   7   -0.52    2.48
  -4   5   7    0.71    2.08
  -4   5   6   17.15    1.99
  -4   5   6   16.32    2.28
  -4   5   5    2.63    1.72
  -4   5   5    0.24    1.59
  -4   5   4   63.91    2.74
  -4   5   4   62.95    2.78
  -4   5   3   -0.59    1.03
  -4   5   3    0.59    1.11
  -4   5   2   56.91    2.30
  -4   5   2   57.82    2.34
  -4   5   1    0.59    0.99
   4  -5  -1    1.67    1.15
  -4   5   0    2.53    1.15
   4  -5   0    2.66    1.31
  -4   5  -1    2.02    1.34
   4  -5   1    0.64    1.74
  -4   5  -2    2.42    1.63
   4  -5   2    0.04    2.02
  -4   5  -3    1.23    1.87
   4  -5   3    0.16    2.27
  -4   5  -4   65.64    3.34
   4  -5   4   68.31    3.70
  -4   5  -5    5.41    2.51
   4  -5   5    3.58    2.59
  -4   5  -6    4.43    2.52
   4  -5   6    2.63    2.95
  -4   5  -7   40.70    3.44
   4  -5   7   43.34    3.48
  -4   5  -8   67.03    3.94
   4  -5   8   68.63    4.29
  -4   5  -9    2.70    2.94
   4  -5   9   14.82    3.46
  -4   5 -10   29.70    3.39
   4  -5  10   23.89    3.84
  -4   5 -11    0.04    3.24
   4  -5  11    0.81    4.14
  -4   4  12  235.04    9.49
   4  -4 -12  222.39    8.72
  -4   4  11  183.02    7.75
   4  -4 -11  163.59    6.78
  -4   4  10   19.07    3.46
   4  -4 -10   18.59    3.06
  -4   4   9  566.57   20.37
   4  -4  -9  566.97   20.28
  -4   4   8  584.06   20.83
  -4   4   7 1134.75   39.99
  -4   4   7 1106.84   38.96
  -4   4   6  947.21   33.42
  -4   4   6  944.02   33.29
  -4   4   5  860.86   30.38
  -4   4   5  873.57   30.81
  -4   4   4 3747.91  132.27
  -4   4   4 4067.87  143.57
  -4   4   0 3332.89  117.25
   4  -4   0 3209.87  112.98
  -4   4  -1  192.09    7.00
   4  -4   1  200.29    7.40
  -4   4  -2 1488.75   52.27
   4  -4   2 1581.03   55.56
  -4   4  -3 1914.30   67.21
   4  -4   3 1955.93   68.67
  -4   4  -4 2083.98   73.15
   4  -4   4 2029.97   71.28
  -4   4  -5 2020.29   70.93
   4  -4   5 2025.06   71.13
  -4   4  -6   80.75    4.03
   4  -4   6   74.45    3.98
  -4   4  -7 1895.90   66.60
   4  -4   7 2012.24   70.73
  -4   4  -8 2301.85   80.81
   4  -4   8 2220.85   78.04
  -4   4  -9 1148.41   40.61
   4  -4   9 1199.11   42.46
  -4   4 -10  790.85   28.11
   4  -4  10  838.92   29.97
  -4   4 -11  171.85    7.06
   4  -4  11  183.86    7.91
  -4   3  13   84.27    5.00
   4  -3 -13   64.17    4.10
  -4   3  12   12.29    3.52
   4  -3 -12    9.35    2.96
  -4   3  11   44.58    4.07
   4  -3 -11   43.21    3.26
  -4   3  10  332.91   12.44
   4  -3 -10  331.38   12.28
  -4   3   9   11.12    2.68
   4  -3  -9   11.88    2.60
  -4   3   8   64.93    3.39
   4  -3  -8   61.94    3.47
  -4   3   7   19.77    2.14
   4  -3  -7   16.11    2.19
  -4   3   6   27.67    1.94
   4  -3  -6   27.98    2.07
  -4   3   5  203.65    7.41
  -4   3   5  212.53    7.69
  -4   3   0   35.87    1.62
   4  -3   0   45.48    2.06
  -4   3  -1    1.27    1.23
   4  -3   1   -1.97    1.38
  -4   3  -2   30.70    2.02
   4  -3   2   36.08    2.33
  -4   3  -3   82.35    3.88
   4  -3   3   87.46    3.93
  -4   3  -4   17.30    2.26
   4  -3   4   24.48    2.50
  -4   3  -5  193.30    7.52
   4  -3   5  194.33    7.59
  -4   3  -6   16.53    2.55
   4  -3   6   14.83    2.71
  -4   3  -7  139.59    6.00
   4  -3   7  140.35    6.00
  -4   3  -8  190.67    7.62
   4  -3   8  189.66    7.89
  -4   3  -9   65.97    4.02
   4  -3   9   70.45    4.22
  -4   3 -10   86.02    4.57
   4  -3  10   84.45    5.01
  -4   3 -11    5.60    3.00
   4  -3  11   -1.30    3.73
  -4   2  13  260.17   10.17
   4  -2 -13  265.40   10.17
  -4   2  12  479.65   17.51
   4  -2 -12  488.93   17.59
  -4   2  11  339.15   12.66
   4  -2 -11  353.26   12.97
  -4   2  10  609.06   21.83
   4  -2 -10  660.71   23.58
  -4   2   9  277.55   10.42
   4  -2  -9  290.17   10.78
  -4   2   8  430.73   15.52
   4  -2  -8  422.37   15.21
  -4   2   7   22.72    2.07
   4  -2  -7   24.47    2.18
  -4   2   6  164.48    6.15
   4  -2  -6  167.21    6.30
  -4   2   5  204.62    7.44
   4  -2  -5  219.62    7.99
  -4   2   4  176.35    6.40
   4  -2  -4  192.11    6.99
  -4   2   0  845.12   29.77
   4  -2   0  929.98   32.76
  -4   2  -1 6852.90  239.75
   4  -2   1 7417.72  259.50
  -4   2  -2 6330.04  221.37
   4  -2   2 6697.74  234.18
  -4   2  -3 6596.20  230.75
   4  -2   3 6912.94  241.75
  -4   2  -4 5064.97  177.25
   4  -2   4 5100.66  178.44
  -4   2  -5   12.41    2.42
   4  -2   5   14.04    2.38
  -4   2  -6 3059.17  107.19
   4  -2   6 3227.72  113.13
  -4   2  -7 2104.51   73.93
   4  -2   7 2178.84   76.57
  -4   2  -8 1236.13   43.67
   4  -2   8 1297.07   45.87
  -4   2  -9  892.96   31.71
   4  -2   9  970.23   34.48
  -4   2 -10  221.38    8.60
   4  -2  10  218.02    8.73
  -4   2 -11  900.93   31.94
   4  -2  11  954.10   33.93
  -4   1  14   25.02    4.19
   4  -1 -14   32.37    3.53
  -4   1  13    5.25    3.64
   4  -1 -13    2.55    2.91
  -4   1  12   20.37    3.91
   4  -1 -12   20.21    2.90
  -4   1  11   57.52    3.81
   4  -1 -11   65.42    3.81
  -4   1  10   28.11    3.32
   4  -1 -10   22.63    2.80
  -4   1   9   67.28    3.91
   4  -1  -9   67.17    3.58
  -4   1   8    1.23    2.34
   4  -1  -8    4.89    2.11
  -4   1   7    4.13    1.91
   4  -1  -7    6.78    1.87
  -4   1   6    4.87    1.58
   4  -1  -6    7.60    1.62
  -4   1   5   12.25    1.38
   4  -1  -5   15.38    1.58
  -4   1   4  111.59    4.18
   4  -1  -4  134.57    4.97
  -4   1   3  373.74   13.34
   4  -1  -3  402.86   14.36
   4  -1  -2    5.88    0.90
   4  -1  -2    6.87    1.07
   4  -1  -1  243.60    8.75
   4  -1  -1  228.46    8.29
   4  -1   0   29.19    1.77
   4  -1   0   31.84    1.97
  -4   1  -1   41.19    2.37
   4  -1   1   48.57    2.49
  -4   1  -2   65.98    3.16
   4  -1   2   65.55    3.24
  -4   1  -3    5.27    2.13
   4  -1   3    4.20    2.02
  -4   1  -4  157.28    6.38
   4  -1   4  158.40    6.38
  -4   1  -5   88.46    4.34
   4  -1   5   96.30    4.45
  -4   1  -6   17.22    2.63
   4  -1   6   23.32    2.83
  -4   1  -7    6.32    2.84
   4  -1   7   10.88    3.12
  -4   1  -8   -3.93    3.16
   4  -1   8    3.29    3.01
  -4   1  -9    0.76    3.02
   4  -1   9    5.20    3.18
  -4   1 -10    7.44    3.16
   4  -1  10    4.89    3.48
  -4   1 -11   24.66    3.74
   4  -1  11   19.13    3.86
  -4   0  14    8.52    4.02
   4   0 -14    8.68    3.17
  -4   0  13   86.43    5.01
   4   0 -13   95.59    4.77
  -4   0  12  446.72   16.32
   4   0 -12  463.61   16.81
  -4   0  11  346.43   13.02
   4   0 -11  375.43   13.75
  -4   0  10 1047.44   37.14
   4   0 -10 1110.14   39.22
  -4   0   9 4029.61  141.07
   4   0  -9 4164.99  145.69
  -4   0   8 2290.19   80.39
   4   0  -8 2443.90   85.72
  -4   0   7 3048.29  106.81
   4   0  -7 3275.40  114.75
  -4   0   6 4834.88  169.22
   4   0  -6 5096.01  178.44
  -4   0   5 3103.21  108.74
   4   0  -5 3551.26  124.42
  -4   0   3  956.21   33.65
   4   0  -3 1028.00   36.21
   4   0  -1  859.08   30.25
   4   0  -1  845.28   29.86
   4   0   0 2701.68   94.67
   4   0   0 2732.47   95.74
   4   0   1 6130.21  214.32
   4   0   1 5991.97  209.50
  -4   0  -2 1935.13   67.98
   4   0   2 2113.10   74.15
  -4   0  -3 2549.15   89.41
   4   0   3 2734.15   95.86
  -4   0  -4  200.10    7.86
   4   0   4  212.65    8.17
  -4   0  -5 1356.81   47.86
   4   0   5 1420.48   50.09
  -4   0  -6  514.31   18.59
   4   0   6  539.44   19.47
  -4   0  -7  646.81   23.26
   4   0   7  660.42   23.70
  -4   0  -8   63.66    4.10
   4   0   8   62.54    3.98
  -4   0  -9   62.43    3.80
   4   0   9   66.50    4.16
  -4   0 -10    4.33    2.96
   4   0  10    9.76    3.28
  -4  -1  14   48.85    4.42
   4   1 -14   38.36    3.40
  -4  -1  13    1.45    3.80
   4   1 -13   -0.24    2.82
  -4  -1  12   51.18    3.86
   4   1 -12   64.31    4.06
  -4  -1  11   57.81    3.93
   4   1 -11   52.44    3.64
  -4  -1  10  184.29    7.54
   4   1 -10  216.54    8.34
  -4  -1   9   10.79    2.91
   4   1  -9    7.99    2.27
  -4  -1   8  125.78    5.48
   4   1  -8  144.48    5.79
  -4  -1   7   12.76    2.46
   4   1  -7   17.27    2.26
  -4  -1   6  258.09    9.57
   4   1  -6  313.08   11.43
  -4  -1   5 1356.80   47.72
   4   1  -5 1569.76   55.15
  -4  -1   4 1962.76   68.89
   4   1  -4 2198.83   77.14
  -4  -1   3  452.57   16.17
   4   1  -3  489.67   17.48
  -4  -1   2  467.52   16.73
   4   1  -2  458.44   16.41
   4   1  -1   44.79    2.49
   4   1  -1   39.74    2.25
   4   1   0   24.00    1.97
   4   1   0   23.18    1.93
   4   1   1  781.47   27.71
   4   1   1  796.10   28.23
   4   1   2  127.90    5.31
   4   1   2  122.67    5.27
   4   1   3  508.36   18.60
   4   1   3  500.03   18.05
  -4  -1  -4  675.16   24.13
   4   1   4  766.96   27.34
  -4  -1  -5   52.38    3.51
   4   1   5   49.20    3.54
  -4  -1  -6   22.53    3.19
   4   1   6   26.45    3.32
  -4  -1  -7   54.08    3.56
   4   1   7   55.00    3.80
  -4  -1  -8   11.99    2.86
   4   1   8   17.30    3.14
  -4  -1  -9   29.48    3.19
   4   1   9   36.60    3.56
  -4  -1 -10    4.30    3.37
   4   1  10    4.30    3.29
  -4  -2  15  241.46    9.92
   4   2 -15  261.01   10.01
  -4  -2  14  519.69   18.86
   4   2 -14  560.97   20.24
  -4  -2  13  515.13   18.78
   4   2 -13  536.90   19.38
  -4  -2  12  754.54   26.94
   4   2 -12  789.88   28.11
  -4  -2  11  934.49   33.29
   4   2 -11  958.10   33.94
  -4  -2  10 2022.19   71.14
   4   2 -10 2056.10   72.22
  -4  -2   9 1172.41   41.47
   4   2  -9 1270.70   44.82
  -4  -2   8 1271.42   44.91
   4   2  -8 1358.78   47.89
  -4  -2   7 2829.79   99.25
   4   2  -7 3117.13  109.23
  -4  -2   6 3786.41  132.61
   4   2  -6 4384.77  153.39
   4   2  -5 8463.28  295.79
  -4  -2   4 2173.30   76.27
   4   2  -4 2428.87   85.20
  -4  -2   3 2769.54   97.09
   4   2  -3 2986.31  104.64
  -4  -2   2  395.66   14.30
   4   2  -2  389.69   14.10
   4   2  -1 1324.49   46.70
   4   2   0 1572.58   55.31
   4   2   0 1582.47   55.70
   4   2   1  127.75    5.50
   4   2   1  126.45    5.31
   4   2   2  374.18   13.67
   4   2   2  407.07   14.99
   4   2   3    8.85    2.34
   4   2   3   10.96    2.74
   4   2   4  739.93   26.55
   4   2   4  756.66   27.02
   4   2   5 1316.18   46.49
   4   2   5 1285.85   45.50
   4   2   6 2445.41   85.86
  -4  -2  -7 1870.13   65.79
   4   2   7 1793.80   63.18
  -4  -2  -8 1099.47   38.86
   4   2   8 1137.77   40.28
  -4  -2  -9 1008.10   35.67
   4   2   9 1047.38   37.13
  -4  -3  15   -3.54    3.94
   4   3 -15    0.09    3.29
  -4  -3  14   19.59    3.77
   4   3 -14   19.39    3.32
  -4  -3  13  150.10    6.66
   4   3 -13  169.93    7.02
  -4  -3  12    0.84    3.37
   4   3 -12    4.41    2.89
  -4  -3  11    3.24    3.16
   4   3 -11    2.04    2.76
  -4  -3  10    0.88    3.27
   4   3 -10    7.70    2.79
  -4  -3   9   15.77    2.98
   4   3  -9   18.00    2.71
  -4  -3   8   27.69    3.22
   4   3  -8   28.97    2.71
  -4  -3   7   19.51    2.93
   4   3  -7   26.02    2.53
  -4  -3   6   47.73    3.17
   4   3  -6   56.20    3.25
  -4  -3   5   64.53    3.40
   4   3  -5   75.18    3.88
  -4  -3   4   58.84    3.20
   4   3  -4   70.67    3.56
  -4  -3   3  176.56    6.92
   4   3  -3  188.03    7.43
  -4  -3   2   10.28    2.10
   4   3  -2   10.92    2.33
  -4  -3   1    8.11    2.10
   4   3  -1    6.89    2.30
   4   3   0   21.74    2.42
   4   3   0   22.85    2.73
   4   3   1   14.86    2.73
   4   3   1   17.64    2.46
   4   3   2  209.95    8.46
   4   3   2  219.80    8.46
   4   3   3  123.91    5.73
   4   3   3  115.87    5.25
   4   3   4   11.85    2.75
   4   3   4   17.35    2.83
   4   3   5   19.40    3.04
   4   3   5   14.64    2.96
   4   3   6   17.85    3.29
   4   3   6   18.58    3.25
   4   3   7   19.09    3.38
   4   3   7   20.30    3.22
   4   3   8   43.62    3.63
   4   3   8   48.87    3.96
   4   3   9   48.40    4.23
   4   3   9   49.41    3.90
  -4  -4  15  396.37   14.79
   4   4 -15  440.27   16.14
  -4  -4  14  170.99    7.37
   4   4 -14  175.89    7.29
  -4  -4  13 1275.85   45.08
   4   4 -13 1352.86   47.70
  -4  -4  12  584.66   21.14
   4   4 -12  679.50   24.27
  -4  -4  11  820.38   29.32
   4   4 -11  856.43   30.41
  -4  -4  10  176.05    7.35
   4   4 -10  208.36    8.27
  -4  -4   9    5.66    3.23
   4   4  -9   11.71    2.75
  -4  -4   8  493.99   17.98
   4   4  -8  556.43   20.09
  -4  -4   7   42.21    3.26
   4   4  -7   51.15    3.41
  -4  -4   6  121.48    5.39
   4   4  -6  142.10    5.95
  -4  -4   5  298.42   11.18
   4   4  -5  324.22   12.13
  -4  -4   4  808.76   28.75
   4   4  -4  905.80   32.28
  -4  -4   3   24.47    2.53
   4   4  -3   31.16    3.05
  -4  -4   2 2178.28   76.49
   4   4  -2 2167.19   76.25
  -4  -4   1 2727.08   95.64
   4   4  -1 2597.46   91.21
   4   4   0 2758.83   96.74
   4   4   0 2777.87   97.56
   4   4   1 2300.98   80.78
   4   4   1 2205.62   77.64
   4   4   2   16.95    2.87
   4   4   2   12.18    2.78
   4   4   3 1473.53   51.98
   4   4   3 1467.94   51.82
   4   4   4  713.04   25.55
   4   4   4  759.43   27.15
   4   4   5  550.27   19.93
   4   4   5  521.39   18.89
   4   4   6  211.73    8.61
   4   4   6  231.37    9.17
   4   4   7   20.40    3.51
   4   4   7   10.66    3.19
   4   4   8  263.69   10.34
   4   4   8  270.59   10.42
  -4  -5  14  405.95   15.15
   4   5 -14  448.08   16.24
  -4  -5  13   59.22    4.32
   4   5 -13   73.41    4.32
  -4  -5  12   52.17    3.99
   4   5 -12   53.62    3.94
  -4  -5  11  108.68    5.45
   4   5 -11  134.19    5.98
  -4  -5  10   38.72    3.77
   4   5 -10   39.00    3.00
  -4  -5   9  183.27    7.59
   4   5  -9  197.68    7.94
  -4  -5   8   11.27    2.94
   4   5  -8    5.90    2.35
  -4  -5   7    2.98    2.74
   4   5  -7    2.78    2.47
  -4  -5   6   94.88    4.69
   4   5  -6  101.52    4.85
  -4  -5   5    4.09    2.34
   4   5  -5    5.96    2.46
  -4  -5   4    4.60    2.38
   4   5  -4   13.82    2.66
  -4  -5   3   30.88    2.97
   4   5  -3   30.24    3.17
  -4  -5   2    5.64    2.58
   4   5  -2    0.84    2.86
  -4  -5   1   21.50    2.82
   4   5  -1   13.51    2.78
   4   5   0    6.64    2.47
   4   5   0    7.04    2.82
   4   5   1    7.97    2.51
   4   5   1    6.05    2.63
   4   5   2   55.60    3.63
   4   5   2   58.12    3.72
   4   5   3   16.20    3.28
   4   5   3   17.37    2.88
   4   5   4   70.52    4.38
   4   5   4   68.56    4.21
   4   5   5   -4.31    2.86
   4   5   5   -1.53    3.30
   4   5   6    7.63    3.23
   4   5   6    3.39    3.27
   4   5   7   48.55    3.93
   4   5   7   44.25    3.85
  -4  -6  14  624.32   22.47
   4   6 -14  693.28   24.79
  -4  -6  13  394.37   14.68
   4   6 -13  434.51   15.89
  -4  -6  12 1076.50   38.20
   4   6 -12 1274.72   45.00
  -4  -6  11  549.57   19.92
   4   6 -11  596.97   21.49
  -4  -6  10  695.66   25.00
   4   6 -10  746.15   26.65
  -4  -6   9 1784.65   62.82
   4   6  -9 1932.22   67.98
  -4  -6   8  902.55   32.14
   4   6  -8 1026.70   36.44
  -4  -6   7  989.82   35.20
   4   6  -7 1089.88   38.67
  -4  -6   6  898.44   32.02
   4   6  -6  989.24   35.20
  -4  -6   5  618.49   22.29
   4   6  -5  674.22   24.32
  -4  -6   4   10.06    2.82
   4   6  -4    9.79    2.67
  -4  -6   3  746.18   26.66
   4   6  -3  751.35   26.94
  -4  -6   2 1186.55   41.97
   4   6  -2 1204.86   42.68
  -4  -6   1 1881.04   66.19
   4   6  -1 1826.44   64.36
   4   6   0 1953.66   68.75
   4   6   0 2087.34   73.35
   4   6   1  155.92    6.60
   4   6   1  168.79    7.03
   4   6   2 3625.73  127.04
   4   6   2 3574.47  125.24
   4   6   3 3391.57  118.88
   4   6   3 3373.90  118.27
   4   6   4 2320.88   81.52
   4   6   4 2257.27   79.31
   4   6   5 1337.97   47.25
   4   6   5 1346.45   47.54
   4   6   6  459.99   16.82
   4   6   6  519.17   18.92
  -4  -7  14    3.21    3.86
   4   7 -14    1.96    3.33
  -4  -7  13   -0.29    3.60
   4   7 -13   -1.95    3.28
  -4  -7  12    2.91    3.51
   4   7 -12    2.91    3.23
  -4  -7  11   50.45    4.27
   4   7 -11   58.50    3.99
  -4  -7  10   14.70    3.54
   4   7 -10   14.38    3.05
  -4  -7   9  104.82    5.38
   4   7  -9  124.14    5.58
  -4  -7   8  103.26    5.28
   4   7  -8  116.90    5.44
  -4  -7   7    7.27    2.95
   4   7  -7    4.76    2.80
  -4  -7   6   50.60    3.72
   4   7  -6   51.84    3.59
  -4  -7   5   84.11    4.47
   4   7  -5   90.09    4.43
  -4  -7   4    7.66    2.92
   4   7  -4    8.94    2.59
  -4  -7   3   26.39    3.19
   4   7  -3   23.67    2.99
  -4  -7   2    2.35    2.59
   4   7  -2    4.79    2.64
  -4  -7   1   12.28    2.72
   4   7  -1   11.44    2.75
   4   7   0   10.06    3.16
   4   7   0   13.30    3.20
   4   7   1   10.03    2.93
   4   7   1   10.63    2.93
   4   7   2   12.50    2.94
   4   7   2   22.19    3.41
   4   7   3   25.39    3.26
   4   7   3   23.82    3.31
   4   7   4    4.69    3.19
   4   7   4    2.42    3.39
   4   7   5   -0.09    3.65
   4   7   5   -0.69    3.33
  -4  -8  13   33.90    3.98
   4   8 -13   38.16    3.78
  -4  -8  12   25.74    3.97
   4   8 -12   37.84    3.72
  -4  -8  11    3.18    3.27
   4   8 -11    5.04    3.15
  -4  -8  10   85.83    4.71
   4   8 -10  106.74    5.16
  -4  -8   9  220.35    8.92
   4   8  -9  252.43    9.77
  -4  -8   8 1522.19   53.71
   4   8  -8 1783.12   62.82
  -4  -8   7  718.15   25.70
   4   8  -7  864.50   30.80
  -4  -8   6 1431.64   50.53
   4   8  -6 1646.40   58.02
  -4  -8   5 1449.14   51.11
   4   8  -5 1559.29   54.95
  -4  -8   4 1913.40   67.30
   4   8  -4 2076.42   73.02
  -4  -8   3 2772.86   97.30
   4   8  -3 2822.14   99.01
  -4  -8   2 1106.79   39.22
   4   8  -2 1103.98   39.14
  -4  -8   1 1292.34   45.77
   4   8  -1 1230.11   43.56
   4   8   0  153.47    6.71
   4   8   0  152.75    6.71
   4   8   1  628.44   22.63
   4   8   1  633.68   22.80
   4   8   2  579.81   21.00
   4   8   2  591.12   21.32
   4   8   3  622.24   22.47
   4   8   3  646.53   23.19
   4   8   4  268.61   10.68
  -4  -9  12   -6.86    3.82
   4   9 -12    5.72    3.45
  -4  -9  11   -2.31    3.68
   4   9 -11    2.76    3.24
  -4  -9  10   74.51    4.81
   4   9 -10   84.98    4.69
  -4  -9   9   16.94    3.67
   4   9  -9   22.79    3.63
  -4  -9   8   59.50    4.15
   4   9  -8   83.59    4.67
  -4  -9   7    1.36    3.17
   4   9  -7   15.78    3.02
  -4  -9   6   91.71    4.71
   4   9  -6  117.72    5.51
  -4  -9   5    0.29    2.90
   4   9  -5    7.07    3.01
  -4  -9   4    6.96    3.14
   4   9  -4    5.59    3.42
  -4  -9   3   12.43    3.22
   4   9  -3   12.67    3.10
  -4  -9   2   17.20    3.22
   4   9  -2   12.60    3.06
   4   9  -1  147.95    6.37
   4   9  -1  148.52    6.46
   4   9   0   33.69    3.76
   4   9   0   45.28    4.12
   4   9   1    1.50    3.52
   4   9   1   -2.63    3.60
   4   9   2   55.10    3.82
  -4 -10  10  687.12   24.70
   4  10 -10  797.05   28.39
  -4 -10   9 1139.58   40.29
   4  10  -9 1351.78   47.70
  -4 -10   8  283.05   10.84
   4  10  -8  331.42   12.45
  -4 -10   7  378.66   13.94
   4  10  -7  432.41   15.84
  -4 -10   6  443.51   16.28
   4  10  -6  489.16   17.85
  -4 -10   5  724.16   25.85
   4  10  -5  813.01   29.00
  -4 -10   4  961.90   34.10
   4  10  -4 1035.43   36.72
  -4 -10   3  398.68   14.59
   4  10  -3  404.66   14.91
  -4 -10   2  566.94   20.47
   4  10  -2  560.86   20.27
   4  10   0  173.74    7.14
   4  10   0  171.96    7.59
  -4 -11   7   51.20    4.02
   4  11  -7   60.54    4.46
  -4 -11   6   25.45    3.65
   4  11  -6   25.12    3.45
  -4 -11   5   10.63    3.49
   4  11  -5    6.98    3.53
  -4 -11   4    0.32    3.41
   4  11  -4    1.55    3.65
  -5  11   1    8.86    3.90
  -5  11   1    0.45    3.74
  -5  11   0   81.52    4.87
  -5  11   0   79.29    4.84
  -5  11  -1    4.26    3.57
   5 -11   1   16.00    3.78
  -5  11  -2    0.09    3.45
   5 -11   2   -0.09    3.82
  -5  11  -3   81.25    4.75
   5 -11   3   80.07    5.16
  -5  11  -4   -0.81    3.65
   5 -11   4    3.00    4.67
  -5  10   3  287.58   11.06
  -5  10   3  269.09   10.25
  -5  10   2  664.15   23.76
  -5  10   2  665.37   23.79
  -5  10   1  653.41   23.37
  -5  10   1  639.26   22.89
  -5  10   0 1537.22   54.15
  -5  10  -1  845.63   30.02
   5 -10   1  807.65   28.72
  -5  10  -2  520.48   18.75
   5 -10   2  516.04   18.67
  -5  10  -3  311.58   11.68
   5 -10   3  272.75   10.47
  -5  10  -4  571.84   20.60
   5 -10   4  556.87   20.20
  -5  10  -5  825.45   29.37
   5 -10   5  802.75   28.81
  -5  10  -6  478.56   17.33
   5 -10   6  478.16   17.82
  -5   9   6    8.89    3.61
  -5   9   6    0.65    3.85
  -5   9   5   19.76    3.19
  -5   9   5   21.98    3.60
  -5   9   4    8.73    2.71
  -5   9   4    3.76    3.16
  -5   9   3    0.69    2.86
  -5   9   3    1.29    2.70
  -5   9   2   -1.17    2.66
  -5   9   2    0.40    2.46
  -5   9   1   -1.41    2.66
  -5   9   1    1.57    2.37
  -5   9   0  114.73    4.87
   5  -9   0  111.39    4.87
  -5   9  -1   -0.49    2.45
   5  -9   1    0.76    2.77
  -5   9  -2   11.23    2.70
   5  -9   2   17.14    3.02
  -5   9  -3    6.48    3.06
   5  -9   3   12.08    3.18
  -5   9  -4   34.07    3.35
   5  -9   4   35.53    3.83
  -5   9  -5   58.91    3.96
   5  -9   5   60.97    4.44
  -5   9  -6    2.15    3.19
   5  -9   6    2.38    4.08
  -5   9  -7   11.64    3.28
   5  -9   7   13.33    4.42
  -5   9  -8   23.66    3.54
   5  -9   8   30.40    4.67
  -5   8   8   49.92    4.84
  -5   8   8   52.77    4.39
  -5   8   7   42.94    4.05
  -5   8   7   40.54    3.60
  -5   8   6  335.71   12.32
  -5   8   6  341.81   12.68
  -5   8   5   48.46    3.35
  -5   8   5   48.82    3.18
  -5   8   4   51.02    3.14
  -5   8   4   48.84    2.90
  -5   8   3   33.15    2.54
  -5   8   3   33.31    2.41
  -5   8   2  217.52    8.06
  -5   8   2  224.67    8.26
  -5   8   1 3033.61  106.72
  -5   8   1 2870.78  100.99
  -5   8   0  469.49   16.76
   5  -8   0  497.16   17.76
  -5   8  -1 1072.55   37.85
   5  -8   1 1046.48   36.97
  -5   8  -2 1666.67   58.57
   5  -8   2 1634.57   57.52
  -5   8  -3 2096.76   73.59
   5  -8   3 2072.27   72.82
  -5   8  -4 2888.22  101.28
   5  -8   4 2880.58  101.05
  -5   8  -5 1049.04   37.15
   5  -8   5 1020.07   36.19
  -5   8  -6  806.66   28.72
   5  -8   6  814.73   29.12
  -5   8  -7  300.41   11.36
   5  -8   7  312.21   12.13
  -5   8  -8  200.73    8.07
   5  -8   8  212.49    9.08
  -5   8  -9   84.17    5.16
   5  -8   9   94.58    6.34
  -5   7   9   12.94    4.26
  -5   7   9    7.51    3.94
  -5   7   8   23.14    3.84
  -5   7   8   23.71    3.36
  -5   7   7   -1.05    3.15
  -5   7   7    1.81    2.70
  -5   7   6    8.01    2.61
  -5   7   6    4.71    2.21
  -5   7   5    6.30    2.13
  -5   7   5    5.59    1.93
  -5   7   4    6.85    1.69
  -5   7   4    2.00    1.56
  -5   7   1  120.60    4.63
  -5   7   1  119.43    4.59
  -5   7   0    9.31    1.64
   5  -7   0    9.95    1.84
  -5   7  -1    4.32    1.88
   5  -7   1    3.12    2.04
  -5   7  -2   13.20    2.08
   5  -7   2   11.96    2.60
  -5   7  -3   19.69    2.73
   5  -7   3   24.62    2.96
  -5   7  -4  164.66    6.58
   5  -7   4  168.59    6.98
  -5   7  -5    7.59    2.93
   5  -7   5    3.61    3.17
  -5   7  -6   32.26    3.50
   5  -7   6   42.12    3.74
  -5   7  -7  275.07   10.45
   5  -7   7  273.66   10.69
  -5   7  -8   42.06    3.52
   5  -7   8   47.44    4.45
  -5   7  -9   59.73    4.10
   5  -7   9   54.90    4.54
  -5   6  10  424.72   15.66
  -5   6  10  414.17   15.50
  -5   6   9 1070.47   37.96
  -5   6   9 1148.08   40.59
  -5   6   8 1684.59   59.33
  -5   6   8 1680.96   59.16
  -5   6   7 3348.41  117.61
  -5   6   7 3348.00  117.56
  -5   6   6 2762.39   97.24
  -5   6   6 2728.31   95.99
  -5   6   5 2439.64   86.64
  -5   6   5 2510.87   89.24
  -5   6   1  495.84   19.96
  -5   6   0  335.74   12.04
   5  -6   0  369.86   13.28
  -5   6  -1  175.10    6.50
   5  -6   1  183.76    6.94
  -5   6  -2  436.46   15.60
   5  -6   2  446.02   16.04
  -5   6  -3  691.32   24.52
   5  -6   3  728.06   25.92
  -5   6  -4  516.33   18.48
   5  -6   4  539.53   19.43
  -5   6  -5  345.78   12.70
   5  -6   5  376.20   13.91
  -5   6  -6  183.15    7.35
   5  -6   6  203.59    8.15
  -5   6  -7  547.11   19.69
   5  -6   7  574.90   20.85
  -5   6  -8  502.70   18.18
   5  -6   8  560.84   20.39
  -5   6  -9  750.27   26.74
   5  -6   9  834.54   29.86
  -5   6 -10  234.99    9.31
   5  -6  10  241.17    9.92
  -5   5  11   15.66    4.14
  -5   5  11    9.65    4.38
  -5   5  10  100.42    5.38
  -5   5  10  116.30    5.58
  -5   5   9    0.49    3.26
  -5   5   9    0.96    2.78
  -5   5   8    8.48    2.57
  -5   5   8    3.41    2.41
  -5   5   7    3.36    2.13
  -5   5   7   10.22    2.16
  -5   5   6   23.87    1.96
  -5   5   6   22.06    1.84
  -5   5   0   19.60    1.28
   5  -5   0   29.46    1.63
  -5   5  -1   -0.79    1.52
   5  -5   1   -1.15    1.72
  -5   5  -2   15.57    1.92
   5  -5   2   18.68    2.23
  -5   5  -3    9.57    2.15
   5  -5   3   12.07    2.52
  -5   5  -4   20.96    2.52
   5  -5   4   23.27    2.88
  -5   5  -5   10.52    2.64
   5  -5   5    8.96    2.80
  -5   5  -6  155.93    6.49
   5  -5   6  149.68    6.42
  -5   5  -7   94.08    4.66
   5  -5   7   94.28    5.02
  -5   5  -8    5.08    3.06
   5  -5   8    0.32    3.22
  -5   5  -9   99.03    5.02
   5  -5   9  103.03    5.59
  -5   5 -10   42.12    3.86
   5  -5  10   41.36    4.26
  -5   4  12  235.12    9.55
  -5   4  11   47.57    4.21
  -5   4  10  399.40   14.75
  -5   4  10  369.50   13.70
  -5   4   9  148.41    6.31
  -5   4   9  148.24    6.19
  -5   4   8  339.75   12.42
  -5   4   8  335.62   12.22
  -5   4   7   73.73    3.35
  -5   4   7   72.81    3.35
  -5   4   6   62.41    2.67
  -5   4   6   65.24    2.75
  -5   4   0  235.52    8.45
   5  -4   0  274.35    9.88
  -5   4  -1 1049.40   36.94
   5  -4   1 1171.75   41.27
  -5   4  -2 1382.76   48.59
   5  -4   2 1498.05   52.67
  -5   4  -3 1036.64   36.54
   5  -4   3 1149.31   40.53
  -5   4  -4  650.00   23.17
   5  -4   4  747.69   26.60
  -5   4  -5  138.74    5.87
   5  -4   5  164.79    6.80
  -5   4  -6 1296.24   45.71
   5  -4   6 1395.59   49.20
  -5   4  -7 1718.88   60.46
   5  -4   7 1755.83   61.82
  -5   4  -8  957.91   33.93
   5  -4   8 1020.77   36.23
  -5   4  -9  791.47   28.10
   5  -4   9  829.49   29.65
  -5   4 -10  310.29   11.62
   5  -4  10  330.63   12.59
  -5   3  12   18.95    4.13
   5  -3 -12    7.41    3.28
  -5   3  11  304.37   11.58
   5  -3 -11  295.62   11.05
  -5   3  10    0.08    3.05
   5  -3 -10    2.54    2.77
  -5   3   9   11.11    2.53
   5  -3  -9   12.11    2.60
  -5   3   8    3.59    2.32
   5  -3  -8    0.08    2.12
  -5   3   7    2.12    1.75
   5  -3  -7    4.86    1.52
  -5   3   6   73.16    2.94
  -5   3   6   68.97    2.87
   5  -3   0   16.34    1.54
   5  -3   0   16.18    1.39
  -5   3  -1   11.86    1.51
   5  -3   1   17.58    1.83
  -5   3  -2    7.35    1.74
   5  -3   2   11.43    2.03
  -5   3  -3   38.07    2.62
   5  -3   3   39.94    2.71
  -5   3  -4    0.71    2.19
   5  -3   4   -0.91    2.39
  -5   3  -5    1.80    2.68
   5  -3   5    2.64    2.72
  -5   3  -6    4.00    2.93
   5  -3   6   -1.04    2.88
  -5   3  -7   30.76    3.17
   5  -3   7   32.24    3.61
  -5   3  -8    5.16    2.98
   5  -3   8    9.59    3.46
  -5   3  -9   18.48    3.16
   5  -3   9   18.88    3.43
  -5   3 -10   15.96    3.33
   5  -3  10   17.66    3.82
  -5   2  13  541.60   19.80
   5  -2 -13  515.24   18.54
  -5   2  12  808.48   28.93
   5  -2 -12  822.62   29.21
  -5   2  11 1369.46   48.35
   5  -2 -11 1363.41   48.02
  -5   2  10 1317.56   46.50
   5  -2 -10 1317.96   46.41
  -5   2   9 2205.32   77.44
   5  -2  -9 2231.32   78.32
  -5   2   8  738.14   26.17
   5  -2  -8  742.92   26.29
  -5   2   7  538.65   19.15
   5  -2  -7  547.80   19.47
  -5   2   6  364.81   13.03
   5  -2  -6  388.45   13.87
   5  -2  -1  200.54    7.25
   5  -2  -1  179.55    6.57
   5  -2   0 1290.76   45.44
   5  -2   0 1392.19   48.93
  -5   2  -1 2875.85  100.75
   5  -2   1 3105.82  108.80
  -5   2  -2 2783.60   97.54
   5  -2   2 2918.97  102.30
  -5   2  -3 1898.53   66.68
   5  -2   3 2026.56   71.13
  -5   2  -4   39.16    2.91
   5  -2   4   44.02    3.11
  -5   2  -5 1829.17   64.28
   5  -2   5 1948.16   68.44
  -5   2  -6 1820.50   63.98
   5  -2   6 1994.27   70.11
  -5   2  -7  290.36   10.93
   5  -2   7  294.18   11.20
  -5   2  -8  337.15   12.49
   5  -2   8  387.12   14.30
  -5   2  -9   21.40    3.19
   5  -2   9   21.40    3.88
  -5   2 -10  604.08   21.69
   5  -2  10  694.27   24.90
  -5   1  13    5.23    4.29
   5  -1 -13   -1.54    2.92
  -5   1  12  151.61    6.98
   5  -1 -12  125.56    5.57
  -5   1  11   14.82    3.57
   5  -1 -11   19.21    2.94
  -5   1  10   29.48    3.29
   5  -1 -10   31.05    2.96
  -5   1   9   68.11    3.79
   5  -1  -9   73.06    3.72
  -5   1   8   49.57    2.99
   5  -1  -8   51.92    2.99
  -5   1   7  167.26    6.44
   5  -1  -7  195.24    7.28
  -5   1   6   26.36    1.87
   5  -1  -6   29.85    1.91
  -5   1   5   17.68    1.43
   5  -1  -5   22.36    1.47
  -5   1   4   28.84    1.43
   5  -1  -4   27.57    1.51
   5  -1  -3   12.55    1.10
   5  -1  -3   15.60    1.23
   5  -1  -2   29.41    1.71
   5  -1  -2   31.67    1.90
   5  -1  -1    0.71    1.31
   5  -1  -1    1.78    1.54
   5  -1   0   -2.50    1.78
   5  -1   0   -1.54    1.54
   5  -1   1  100.70    4.40
   5  -1   1   94.99    4.00
  -5   1  -2   -4.93    2.02
   5  -1   2    0.83    1.98
  -5   1  -3    5.36    2.27
   5  -1   3    9.19    2.23
  -5   1  -4  248.80    9.41
   5  -1   4  267.97   10.08
  -5   1  -5  100.74    4.72
   5  -1   5   97.82    4.67
  -5   1  -6    1.56    2.73
   5  -1   6    6.05    2.73
  -5   1  -7   19.12    3.10
   5  -1   7   28.70    3.30
  -5   1  -8    5.16    3.02
   5  -1   8    3.47    3.38
  -5   1  -9   13.65    3.08
   5  -1   9    8.78    3.32
  -5   1 -10   -1.96    3.25
   5  -1  10   -0.49    4.11
  -5   0  14   57.86    5.20
   5   0 -14   60.14    3.98
  -5   0  13   29.11    4.41
   5   0 -13   28.95    3.19
  -5   0  12   15.99    3.99
   5   0 -12   16.64    2.77
  -5   0  11   37.04    3.61
   5   0 -11   32.35    3.17
  -5   0  10  650.28   23.29
   5   0 -10  701.91   25.01
  -5   0   9  243.73    9.26
   5   0  -9  271.03   10.05
  -5   0   8  405.33   14.69
   5   0  -8  463.87   16.65
  -5   0   7  345.73   12.60
   5   0  -7  357.34   12.91
  -5   0   6 1897.74   66.62
   5   0  -6 2122.71   74.52
  -5   0   5 3848.02  134.86
   5   0  -5 4537.56  159.03
  -5   0   4 1250.08   43.96
   5   0  -4 1453.21   51.12
   5   0  -3  947.14   33.45
   5   0  -2 1389.55   48.83
   5   0  -2 1390.34   48.92
   5   0  -1 3293.43  115.41
   5   0  -1 3385.27  118.57
   5   0   0 5082.79  177.79
   5   0   0 4959.99  173.60
   5   0   1 4243.48  148.53
   5   0   1 4152.26  145.47
   5   0   2 4519.68  158.15
   5   0   2 4638.82  162.40
   5   0   3 2165.27   76.12
   5   0   3 1943.66   68.31
  -5   0  -4 5016.36  175.57
   5   0   4 5694.25  199.18
  -5   0  -5 4629.50  162.03
   5   0   5 4993.30  174.71
  -5   0  -6 3007.63  105.46
   5   0   6 3308.35  115.96
  -5   0  -7 1659.49   58.38
   5   0   7 1826.84   64.29
  -5   0  -8  451.03   16.35
   5   0   8  491.42   17.89
  -5   0  -9  571.27   20.55
   5   0   9  597.21   21.57
  -5  -1  14   -2.84    4.05
   5   1 -14    5.03    3.40
  -5  -1  13    8.16    4.24
   5   1 -13    2.55    3.03
  -5  -1  12    2.46    3.55
   5   1 -12   -0.89    2.97
  -5  -1  11    6.62    3.13
   5   1 -11    3.49    2.93
  -5  -1  10    5.72    3.12
   5   1 -10   -3.12    2.68
  -5  -1   9   15.72    3.19
   5   1  -9   13.01    2.55
  -5  -1   8    1.99    2.63
   5   1  -8    5.41    2.03
  -5  -1   7  121.78    5.13
   5   1  -7  145.77    5.72
  -5  -1   6   23.92    2.38
   5   1  -6   33.73    2.31
  -5  -1   5   -1.47    1.71
   5   1  -5    2.30    1.78
  -5  -1   4   64.68    3.05
   5   1  -4   73.15    3.49
  -5  -1   3  357.08   12.87
   5   1  -3  358.63   13.02
   5   1  -2   22.65    2.02
   5   1  -2   22.09    2.13
   5   1  -1   28.52    2.06
   5   1  -1   31.89    2.33
   5   1   0  106.21    4.48
   5   1   0  108.19    4.64
   5   1   1   23.82    2.26
   5   1   1   22.43    2.54
   5   1   2  545.83   19.60
   5   1   2  524.76   18.96
   5   1   3  791.86   28.20
   5   1   3  779.10   27.81
   5   1   4   87.23    4.27
   5   1   4   86.23    4.43
   5   1   5  190.87    7.64
   5   1   5  185.14    7.48
   5   1   6  143.44    6.19
  -5  -1  -7   27.77    2.95
   5   1   7   36.15    3.46
  -5  -1  -8  197.72    7.92
   5   1   8  209.25    8.37
  -5  -1  -9   24.78    3.00
   5   1   9   28.40    3.61
  -5  -2  14  164.67    7.54
   5   2 -14  189.64    7.54
  -5  -2  13  237.39    9.61
   5   2 -13  248.54    9.57
  -5  -2  12  303.01   11.58
   5   2 -12  333.62   12.31
  -5  -2  11  954.53   33.93
   5   2 -11 1053.59   37.26
  -5  -2  10  334.34   12.56
   5   2 -10  371.29   13.68
  -5  -2   9  558.53   20.18
   5   2  -9  640.32   22.83
  -5  -2   8  844.42   30.09
   5   2  -8  966.25   34.11
  -5  -2   7 2117.22   74.40
   5   2  -7 2377.55   83.38
  -5  -2   6 6327.02  221.29
   5   2  -6 7057.36  246.89
  -5  -2   5 2076.35   72.92
   5   2  -5 2347.99   82.37
  -5  -2   4 2597.93   91.08
   5   2  -4 2969.69  104.08
  -5  -2   3 2963.97  103.89
   5   2  -3 3036.09  106.44
   5   2  -2 3390.19  118.78
   5   2  -1 3324.30  116.43
   5   2  -1 3315.18  116.19
   5   2   0  677.55   24.10
   5   2   0  676.76   24.17
   5   2   1  289.11   10.82
   5   2   1  298.76   11.05
   5   2   2  217.81    8.41
   5   2   2  223.66    8.72
   5   2   3  142.47    5.95
   5   2   3  132.05    5.91
   5   2   4   38.12    3.28
   5   2   4   42.27    3.52
   5   2   5  262.65   10.19
   5   2   5  264.34   10.19
   5   2   6   53.68    3.90
   5   2   6   50.49    3.95
   5   2   7   24.34    3.72
   5   2   7   20.07    3.43
   5   2   8  297.79   11.31
   5   2   8  301.77   11.47
  -5  -3  14  196.19    8.39
   5   3 -14  213.91    8.31
  -5  -3  13   61.91    4.72
   5   3 -13   75.51    4.20
  -5  -3  12   26.80    3.95
   5   3 -12   20.12    3.02
  -5  -3  11   35.79    3.69
   5   3 -11   45.18    3.36
  -5  -3  10   40.41    3.84
   5   3 -10   67.42    3.84
  -5  -3   9   86.10    4.71
   5   3  -9   97.04    4.59
  -5  -3   8   60.56    3.87
   5   3  -8   71.11    3.67
  -5  -3   7    2.58    2.74
   5   3  -7    7.08    2.27
  -5  -3   6   21.13    2.66
   5   3  -6   25.51    2.54
  -5  -3   5   46.69    2.97
   5   3  -5   50.69    2.93
  -5  -3   4   62.82    3.50
   5   3  -4   72.89    3.65
  -5  -3   3    0.71    2.22
   5   3  -3    0.08    2.14
  -5  -3   2    5.79    2.38
   5   3  -2    3.65    2.07
   5   3  -1   53.85    3.06
   5   3  -1   59.10    3.37
   5   3   0   68.79    3.66
   5   3   0   77.89    4.06
   5   3   1  212.58    8.24
   5   3   1  198.29    7.88
   5   3   2  284.33   10.65
   5   3   2  290.12   11.01
   5   3   3    2.60    2.60
   5   3   3    2.15    2.92
   5   3   4  238.88    9.38
   5   3   4  219.24    8.78
   5   3   5    3.05    3.10
   5   3   5    0.49    3.17
   5   3   6   13.67    3.38
   5   3   6   18.23    3.31
   5   3   7   12.55    3.60
   5   3   7   10.48    3.36
   5   3   8   -3.29    3.61
   5   3   8    5.61    3.58
  -5  -4  14  787.13   28.18
   5   4 -14  938.79   33.26
  -5  -4  13 1056.13   37.46
   5   4 -13 1129.27   39.88
  -5  -4  12 1530.62   54.00
   5   4 -12 1698.54   59.71
  -5  -4  11  976.85   34.73
   5   4 -11 1070.40   37.82
  -5  -4  10  858.21   30.60
   5   4 -10 1000.38   35.44
  -5  -4   9 1129.65   40.00
   5   4  -9 1313.46   46.31
  -5  -4   8  819.67   29.24
   5   4  -8  970.83   34.38
  -5  -4   7 1276.92   45.12
   5   4  -7 1473.68   51.90
  -5  -4   6  486.59   17.63
   5   4  -6  545.08   19.61
  -5  -4   5  585.25   21.07
   5   4  -5  647.27   23.18
  -5  -4   4  230.77    8.90
   5   4  -4  261.25    9.90
  -5  -4   3 1496.56   52.79
   5   4  -3 1492.19   52.63
  -5  -4   2 2895.82  101.57
   5   4  -2 2784.86   97.71
   5   4  -1 2508.15   88.12
   5   4  -1 2375.62   83.38
   5   4   0 2714.76   95.28
   5   4   0 2550.59   89.58
   5   4   1  210.16    8.18
   5   4   1  217.50    8.58
   5   4   2 2763.12   97.01
   5   4   2 2754.73   96.68
   5   4   3 2222.06   78.12
   5   4   3 2192.79   77.08
   5   4   4  913.49   32.47
   5   4   4  923.14   32.83
   5   4   5  530.51   19.23
   5   4   5  494.63   18.06
   5   4   6   64.08    4.21
   5   4   6   50.81    3.97
   5   4   7  364.45   13.56
   5   4   7  332.77   12.55
  -5  -5  14   16.56    4.06
   5   5 -14   23.95    3.53
  -5  -5  13    4.85    3.59
   5   5 -13   -4.13    3.28
  -5  -5  12   36.97    4.00
   5   5 -12   46.84    3.67
  -5  -5  11   62.11    4.34
   5   5 -11   77.83    4.02
  -5  -5  10  131.22    5.98
   5   5 -10  169.64    6.74
  -5  -5   9   10.52    3.08
   5   5  -9   19.05    2.88
  -5  -5   8    4.36    3.04
   5   5  -8   13.10    2.84
  -5  -5   7  136.38    5.99
   5   5  -7  147.55    6.11
  -5  -5   6   47.75    3.31
   5   5  -6   47.84    3.34
  -5  -5   5   22.91    2.79
   5   5  -5   26.49    3.03
  -5  -5   4   32.54    3.03
   5   5  -4   36.97    3.27
  -5  -5   3    5.37    2.59
   5   5  -3    7.29    2.71
  -5  -5   2   14.90    2.79
   5   5  -2   12.80    2.83
   5   5  -1    1.64    2.75
   5   5  -1    6.55    2.59
   5   5   0    8.63    2.64
   5   5   0    2.95    2.64
   5   5   1    4.08    3.00
   5   5   1    2.40    2.96
   5   5   2   10.70    3.01
   5   5   2    5.34    3.21
   5   5   3    7.76    3.01
   5   5   3   10.33    3.26
   5   5   4   18.71    3.22
   5   5   4   11.33    3.38
   5   5   5   15.74    3.39
   5   5   5   11.77    3.56
   5   5   6   20.75    3.61
   5   5   6   22.04    3.58
  -5  -6  14  147.99    6.87
   5   6 -14  177.83    7.52
  -5  -6  13  326.19   12.40
   5   6 -13  383.76   14.13
  -5  -6  12  240.11    9.53
   5   6 -12  283.24   10.78
  -5  -6  11  346.43   13.00
   5   6 -11  403.54   14.86
  -5  -6  10  974.76   34.63
   5   6 -10 1143.12   40.42
  -5  -6   9  686.94   24.66
   5   6  -9  783.59   27.95
  -5  -6   8 1506.67   53.13
   5   6  -8 1702.46   59.94
  -5  -6   7  659.46   23.68
   5   6  -7  761.84   27.23
  -5  -6   6  485.11   17.66
   5   6  -6  533.46   19.30
  -5  -6   5   11.47    2.79
   5   6  -5    8.86    2.64
  -5  -6   4  199.26    7.91
   5   6  -4  222.22    8.79
  -5  -6   3  291.53   11.03
   5   6  -3  293.08   11.19
  -5  -6   2  158.52    6.63
   5   6  -2  165.39    6.87
   5   6  -1  111.23    5.37
   5   6  -1  103.02    4.97
   5   6   0  510.23   18.47
   5   6   0  558.72   20.28
   5   6   1  968.91   34.41
   5   6   1 1017.49   36.14
   5   6   2 1226.57   43.38
   5   6   2 1264.00   44.71
   5   6   3  532.96   19.33
   5   6   3  497.06   18.08
   5   6   4  703.69   25.25
   5   6   4  674.96   24.19
   5   6   5  275.88   10.67
   5   6   5  242.14    9.62
  -5  -7  13    9.38    3.65
   5   7 -13   13.68    3.04
  -5  -7  12   -1.54    3.48
   5   7 -12   -0.85    2.92
  -5  -7  11   44.68    4.00
   5   7 -11   48.72    3.80
  -5  -7  10    5.32    3.35
   5   7 -10   12.04    2.70
  -5  -7   9    1.16    3.17
   5   7  -9    3.54    3.14
  -5  -7   8   43.36    3.65
   5   7  -8   55.96    3.74
  -5  -7   7   49.04    3.93
   5   7  -7   67.94    4.09
  -5  -7   6    9.58    2.93
   5   7  -6   11.51    2.96
  -5  -7   5   50.56    3.84
   5   7  -5   61.49    3.89
  -5  -7   4    4.17    3.04
   5   7  -4    8.53    2.76
  -5  -7   3    3.45    3.13
   5   7  -3   11.98    3.33
  -5  -7   2   -0.08    3.05
   5   7  -2    4.05    3.25
   5   7  -1   19.11    3.45
   5   7  -1   13.17    3.01
   5   7   0    7.56    2.94
   5   7   0    1.97    3.30
   5   7   1    1.81    3.02
   5   7   1    6.25    3.06
   5   7   2    0.81    2.98
   5   7   2   -0.45    3.11
   5   7   3   -0.52    3.48
   5   7   3   -3.24    3.53
  -5  -8  12    9.38    3.85
   5   8 -12   18.50    3.57
  -5  -8  11   29.99    3.64
   5   8 -11   38.65    3.48
  -5  -8  10   20.76    3.80
   5   8 -10   17.85    3.23
  -5  -8   9  505.67   18.35
   5   8  -9  619.38   22.25
  -5  -8   8   67.58    4.15
   5   8  -8   89.20    4.87
  -5  -8   7  236.33    9.30
   5   8  -7  267.75   10.34
  -5  -8   6  396.08   14.60
   5   8  -6  435.08   15.96
  -5  -8   5 1275.26   45.07
   5   8  -5 1402.31   49.49
  -5  -8   4 1655.51   58.31
   5   8  -4 1706.17   60.07
  -5  -8   3 1483.03   52.30
   5   8  -3 1449.24   51.14
  -5  -8   2 1096.21   38.82
   5   8  -2 1038.62   36.89
   5   8  -1  303.37   11.58
   5   8  -1  297.24   11.41
   5   8   0 1268.78   44.84
   5   8   0 1246.16   44.07
   5   8   1  950.03   33.72
   5   8   1  999.01   35.46
   5   8   2  871.61   31.00
   5   8   2  812.77   29.05
  -5  -9  11   67.82    4.39
   5   9 -11   92.42    4.87
  -5  -9  10   35.35    3.57
   5   9 -10   45.35    3.85
  -5  -9   9    9.79    3.44
   5   9  -9   11.13    3.48
  -5  -9   8   67.21    4.37
   5   9  -8   93.21    5.02
  -5  -9   7   71.48    4.44
   5   9  -7   80.04    4.77
  -5  -9   6   11.46    3.35
   5   9  -6   19.45    3.31
  -5  -9   5   21.31    3.47
   5   9  -5   19.45    3.31
  -5  -9   4    5.93    3.23
   5   9  -4    2.38    3.11
  -5  -9   3   41.29    3.76
   5   9  -3   47.76    4.16
   5   9  -2   88.13    5.05
   5   9  -2   83.49    4.33
   5   9  -1   61.90    4.05
   5   9  -1   72.63    4.38
   5   9   0   12.94    3.40
   5   9   0    6.66    3.53
  -5 -10   9   96.00    4.91
   5  10  -9  116.32    5.61
  -5 -10   8  237.58    9.38
   5  10  -8  288.43   10.96
  -5 -10   7  353.29   13.22
   5  10  -7  418.55   15.41
  -5 -10   6  692.90   24.82
   5  10  -6  813.72   29.03
  -5 -10   5 1182.35   41.76
   5  10  -5 1243.17   43.91
  -5 -10   4  612.94   21.98
   5  10  -4  656.75   23.57
  -5 -10   3 1055.15   37.35
   5  10  -3 1061.65   37.64
  -6  10  -1    1.22    2.92
   6 -10   1  189.96    7.58
  -6  10  -2    6.50    3.49
   6 -10   2   44.23    3.94
  -6  10  -3  204.82    8.24
   6 -10   3  209.05    8.45
  -6  10  -4  154.28    6.92
   6 -10   4  169.88    7.69
  -6   9  -1   10.51    2.38
   6  -9   1   13.66    2.67
  -6   9  -2    1.01    2.75
   6  -9   2    4.37    2.83
  -6   9  -3   26.99    3.28
   6  -9   3   18.73    3.32
  -6   9  -4   11.79    3.68
   6  -9   4   12.96    3.68
  -6   9  -5    4.05    3.78
   6  -9   5   -1.22    4.14
  -6   9  -6   18.62    4.10
   6  -9   6   31.99    5.12
  -6   8  -1  598.70   21.34
   6  -8   1  696.53   24.80
  -6   8  -2 1221.47   43.07
   6  -8   2 1289.16   45.48
  -6   8  -3 2145.74   75.36
   6  -8   3 2239.70   78.67
  -6   8  -4 1312.38   46.28
   6  -8   4 1350.33   47.69
  -6   8  -5 1316.27   46.44
   6  -8   5 1437.22   50.72
  -6   8  -6 1317.03   46.46
   6  -8   6 1362.84   48.28
  -6   8  -7 1177.67   41.62
   6  -8   7 1294.71   45.97
  -6   7  -1    7.10    1.76
   6  -7   1    9.19    1.89
  -6   7  -2    6.59    2.25
   6  -7   2    8.27    2.33
  -6   7  -3   55.10    3.42
   6  -7   3   65.87    3.90
  -6   7  -4    2.82    3.02
   6  -7   4    6.21    3.06
  -6   7  -5    4.03    3.18
   6  -7   5    1.57    3.55
  -6   7  -6  220.89    8.61
   6  -7   6  249.44    9.98
  -6   7  -7   61.51    4.05
   6  -7   7   81.98    5.31
  -6   7  -8   -6.11    4.06
  -6   6  10    0.12    4.11
  -6   6  10    3.95    4.35
  -6   6   9    2.51    3.16
  -6   6   9    1.10    3.12
  -6   6  -1  914.54   32.44
   6  -6   1  974.20   34.55
  -6   6  -2 1592.61   56.03
   6  -6   2 1792.19   63.04
  -6   6  -3  338.41   12.35
   6  -6   3  411.28   14.97
  -6   6  -4  571.10   20.42
   6  -6   4  640.63   22.91
  -6   6  -5  461.89   16.75
   6  -6   5  531.56   19.21
  -6   6  -6  664.41   23.73
   6  -6   6  721.33   25.83
  -6   6  -7  416.50   15.22
   6  -6   7  467.50   17.24
  -6   6  -8  971.22   34.43
   6  -6   8 1063.79   37.84
  -6   5  10    4.42    3.48
  -6   5  10    2.47    3.73
  -6   5   9   14.54    2.78
  -6   5   9   12.88    2.87
  -6   5  -1    1.28    1.56
   6  -5   1    0.08    1.68
  -6   5  -2   14.12    2.28
   6  -5   2   15.32    2.24
  -6   5  -3    6.21    2.33
   6  -5   3    7.29    2.64
  -6   5  -4   37.47    3.16
   6  -5   4   45.79    3.45
  -6   5  -5    7.16    3.01
   6  -5   5    5.83    2.94
  -6   5  -6   -1.81    3.15
   6  -5   6    3.42    3.22
  -6   5  -7    1.57    3.07
   6  -5   7    5.98    3.64
  -6   5  -8   30.86    3.44
   6  -5   8   43.20    4.25
  -6   4  10  768.96   27.43
  -6   4  10  783.51   27.92
  -6   4   9  915.69   32.46
  -6   4   9  857.67   30.45
  -6   4  -1 1878.51   66.04
   6  -4   1 1959.90   68.95
  -6   4  -2  784.12   27.73
   6  -4   2  909.14   32.16
  -6   4  -3  341.40   12.40
   6  -4   3  412.04   14.96
  -6   4  -4   59.40    3.65
   6  -4   4   70.78    3.97
  -6   4  -5  445.07   16.26
   6  -4   5  474.40   17.24
  -6   4  -6  327.38   12.20
   6  -4   6  385.18   14.25
  -6   4  -7  200.60    8.08
   6  -4   7  212.19    8.56
  -6   4  -8  161.80    7.05
   6  -4   8  152.11    6.97
  -6   3  12  169.83    7.88
   6  -3 -12  138.13    6.30
  -6   3  11   32.27    4.37
   6  -3 -11   19.09    3.19
  -6   3  10    8.07    3.18
   6  -3 -10    4.63    2.42
  -6   3   9   75.60    3.86
   6  -3   0    0.84    1.63
   6  -3   0    0.36    1.43
   6  -3   1   -1.75    2.12
   6  -3   1    1.11    1.92
  -6   3  -2   13.37    2.15
   6  -3   2   22.91    2.39
  -6   3  -3  216.61    8.23
   6  -3   3  265.35    9.91
  -6   3  -4  103.97    4.80
   6  -3   4  117.36    5.20
  -6   3  -5   17.10    3.09
   6  -3   5   22.80    2.89
  -6   3  -6   25.25    3.18
   6  -3   6   37.72    3.70
  -6   3  -7    3.76    3.15
   6  -3   7   -2.46    3.31
  -6   3  -8    6.45    3.20
   6  -3   8    9.40    3.93
  -6   2  13   31.96    5.08
   6  -2 -13   33.30    4.35
  -6   2  12  746.87   26.89
   6  -2 -12  791.01   28.15
  -6   2  11  626.78   22.65
   6  -2 -11  614.27   21.96
  -6   2  10 1336.92   47.19
   6  -2 -10 1306.75   46.03
  -6   2   9 1044.74   36.91
   6  -2  -9 1043.14   36.79
  -6   2   8  668.81   23.77
   6  -2  -8  719.24   25.50
  -6   2   7 1124.01   40.11
   6  -2  -7 1233.85   44.01
   6  -2  -1 1451.76   51.19
   6  -2  -1 1373.01   48.44
   6  -2   0 1981.17   69.57
   6  -2   0 1869.73   65.70
   6  -2   1 1802.26   63.27
   6  -2   1 1838.11   64.57
   6  -2   2 1798.34   63.19
   6  -2   2 1872.54   65.83
  -6   2  -3   75.05    3.88
   6  -2   3   91.99    4.28
  -6   2  -4 2620.64   91.91
   6  -2   4 2900.56  101.68
  -6   2  -5 1469.77   51.75
   6  -2   5 1692.57   59.53
  -6   2  -6  580.17   20.85
   6  -2   6  725.52   25.97
  -6   2  -7  336.14   12.52
   6  -2   7  379.73   14.09
  -6   2  -8   26.68    3.49
   6  -2   8   23.07    3.60
  -6   1  13    2.36    4.79
   6  -1 -13    2.23    3.29
  -6   1  12    4.61    4.49
   6  -1 -12    2.87    2.99
  -6   1  11   -2.50    3.82
   6  -1 -11    0.49    2.86
  -6   1  10    1.00    3.45
   6  -1 -10    6.19    2.45
  -6   1   9    4.29    2.76
   6  -1  -9    3.97    2.29
  -6   1   8   22.30    2.40
   6  -1  -8   28.02    2.24
  -6   1   7   23.38    2.08
   6  -1  -7   27.21    1.95
  -6   1   6   28.37    1.75
   6  -1  -6   31.31    1.75
   6  -1  -3   87.41    3.42
   6  -1  -3   89.36    3.53
   6  -1  -2   65.35    3.02
   6  -1  -2   65.79    2.86
   6  -1  -1   13.91    1.67
   6  -1  -1   14.40    1.87
   6  -1   0   14.65    1.95
   6  -1   0   13.77    2.07
   6  -1   1   11.87    2.19
   6  -1   1    8.88    2.27
   6  -1   2   14.96    2.32
   6  -1   2   13.96    2.48
   6  -1   3    2.00    2.48
   6  -1   3    3.55    2.68
  -6   1  -4   63.42    3.77
   6  -1   4   69.15    3.69
  -6   1  -5    6.79    2.85
   6  -1   5    6.23    2.85
  -6   1  -6   54.06    3.75
   6  -1   6   56.52    4.02
  -6   1  -7   36.62    3.48
   6  -1   7   46.69    3.63
  -6   1  -8   48.81    3.82
   6  -1   8   51.28    4.05
  -6   0  13  286.57   11.47
   6   0 -13  305.70   11.44
  -6   0  12  291.06   11.55
   6   0 -12  309.03   11.63
  -6   0  11  784.13   28.06
   6   0 -11  821.16   29.15
  -6   0  10  193.90    7.86
   6   0 -10  207.23    8.03
  -6   0   9  227.84    8.88
   6   0  -9  255.06    9.53
  -6   0   8  219.24    8.31
   6   0  -8  255.16    9.43
  -6   0   7  277.72   10.17
   6   0  -7  344.44   12.40
  -6   0   6 3310.47  116.13
   6   0  -6 3684.81  129.27
  -6   0   5   57.96    2.74
   6   0  -5   58.16    2.78
   6   0  -3   66.78    3.02
   6   0  -3   70.71    3.22
   6   0  -2   88.96    3.77
   6   0  -2   85.46    3.74
   6   0  -1  437.07   15.71
   6   0  -1  456.95   16.39
   6   0   0    8.76    2.15
   6   0   0   12.58    2.15
   6   0   1  120.51    5.26
   6   0   1  126.26    5.22
   6   0   2   34.25    2.88
   6   0   2   30.57    2.92
   6   0   3 1361.12   47.96
   6   0   3 1359.52   47.96
   6   0   4 1556.80   54.80
   6   0   4 1592.48   56.09
   6   0   5 1983.61   69.75
   6   0   5 1874.26   65.90
   6   0   6 1473.20   51.90
   6   0   6 1443.37   50.90
   6   0   7  687.18   24.64
   6   0   7  726.03   26.03
   6   0   8 1677.10   59.03
  -6  -1  14   19.68    5.00
   6   1 -14   29.92    3.54
  -6  -1  13   55.81    4.90
   6   1 -13   61.07    3.81
  -6  -1  12   77.36    5.21
   6   1 -12   84.63    4.44
  -6  -1  11    5.35    4.02
   6   1 -11    9.33    2.90
  -6  -1  10   74.50    4.74
   6   1 -10   79.95    4.05
  -6  -1   9   84.69    4.37
   6   1  -9   96.05    4.44
  -6  -1   8   21.64    2.68
   6   1  -8   24.61    2.48
  -6  -1   7  161.17    6.34
   6   1  -7  180.63    6.98
  -6  -1   6   38.27    2.47
   6   1  -6   44.25    2.71
  -6  -1   5  289.19   10.55
   6   1  -5  305.70   11.14
  -6  -1   4    4.41    1.79
   6   1  -4    1.94    1.91
   6   1  -3   36.54    2.34
   6   1  -3   40.92    2.67
   6   1  -2    6.96    1.87
   6   1  -2    7.68    1.95
   6   1  -1  109.68    4.61
   6   1  -1  109.56    4.74
   6   1   0   92.07    4.18
   6   1   0   97.48    4.42
   6   1   1   45.44    3.03
   6   1   1   44.04    3.07
   6   1   2  207.08    8.07
   6   1   2  207.36    8.20
   6   1   3    1.60    2.76
   6   1   3   -0.68    2.68
   6   1   4  164.20    6.79
   6   1   4  147.01    6.30
   6   1   5   27.95    3.58
   6   1   5   26.01    3.38
   6   1   6    0.76    3.11
   6   1   6    1.50    3.31
   6   1   7   92.39    5.03
   6   1   7   96.93    5.06
  -6  -2  14  156.46    7.48
   6   2 -14  178.69    7.48
  -6  -2  13  146.35    7.16
   6   2 -13  148.50    6.40
  -6  -2  12  336.59   13.00
   6   2 -12  385.81   14.08
  -6  -2  11   32.30    4.42
   6   2 -11   44.05    3.46
  -6  -2  10   32.66    3.61
   6   2 -10   24.11    3.05
  -6  -2   9   59.08    3.88
   6   2  -9   68.01    3.88
  -6  -2   8  415.91   15.18
   6   2  -8  502.20   18.06
  -6  -2   7 3298.66  115.61
   6   2  -7 3775.36  132.20
  -6  -2   6  270.47   10.04
   6   2  -6  323.04   11.84
  -6  -2   5 2020.65   70.99
   6   2  -5 2212.56   77.68
  -6  -2   4 3677.93  128.87
   6   2  -4 3817.63  133.73
   6   2  -3 5544.08  193.95
   6   2  -3 5731.14  200.55
   6   2  -2 7696.05  269.10
   6   2  -2 7584.58  265.16
   6   2  -1 3542.89  124.08
   6   2  -1 3579.14  125.39
   6   2   0 3664.11  128.36
   6   2   0 3740.70  130.99
   6   2   1 1983.40   69.67
   6   2   1 1978.21   69.51
   6   2   2 1985.91   69.76
   6   2   2 1940.28   68.24
   6   2   3 1402.33   49.46
   6   2   3 1426.40   50.30
   6   2   4  903.69   32.14
   6   2   4  952.76   33.83
   6   2   5  341.59   12.75
   6   2   5  336.47   12.66
   6   2   6   47.47    4.01
   6   2   6   43.39    3.88
   6   2   7  307.63   11.70
   6   2   7  328.72   12.39
  -6  -3  14    4.19    4.75
   6   3 -14   10.69    3.21
  -6  -3  13    5.14    4.49
   6   3 -13    2.87    3.36
  -6  -3  12    2.62    4.23
   6   3 -12    3.47    3.07
  -6  -3  11    4.39    3.99
   6   3 -11   -0.40    2.70
  -6  -3  10   54.55    4.09
   6   3 -10   64.22    4.14
  -6  -3   9    2.36    3.09
   6   3  -9    0.92    2.64
  -6  -3   8   26.15    3.08
   6   3  -8   22.99    2.64
  -6  -3   7   25.35    2.92
   6   3  -7   32.70    2.75
  -6  -3   6   39.33    3.11
   6   3  -6   42.68    2.92
  -6  -3   5   11.60    2.43
   6   3  -5    7.05    2.39
  -6  -3   4   41.37    3.11
   6   3  -4   43.16    2.94
  -6  -3   3    4.11    2.39
   6   3  -3   -1.15    2.47
   6   3  -2    3.19    2.15
   6   3  -2    2.28    2.28
   6   3  -1   28.50    2.72
   6   3  -1   31.76    2.83
   6   3   0   10.75    2.48
   6   3   0    6.16    2.60
   6   3   1  170.06    6.88
   6   3   1  171.38    7.01
   6   3   2    9.99    2.65
   6   3   2   12.75    2.93
   6   3   3   47.84    3.78
   6   3   3   49.93    3.66
   6   3   4   54.18    3.87
   6   3   4   50.87    3.91
   6   3   5    9.62    3.23
   6   3   5   15.74    3.68
   6   3   6  119.42    6.01
   6   3   6  111.39    5.64
  -6  -4  14  284.99   11.63
   6   4 -14  293.97   11.27
  -6  -4  13  636.53   23.05
   6   4 -13  698.11   24.87
  -6  -4  12  484.67   17.89
   6   4 -12  547.68   19.67
  -6  -4  11  465.21   17.04
   6   4 -11  577.18   20.75
  -6  -4  10  946.67   33.67
   6   4 -10 1032.26   36.52
  -6  -4   9  768.72   27.47
   6   4  -9  915.48   32.48
  -6  -4   8 1679.03   59.14
   6   4  -8 1814.76   63.82
  -6  -4   7  175.40    7.12
   6   4  -7  207.71    8.07
  -6  -4   6  223.51    8.63
   6   4  -6  257.27    9.75
  -6  -4   5   97.31    4.67
   6   4  -5  109.00    4.96
  -6  -4   4  571.28   20.56
   6   4  -4  579.67   20.84
  -6  -4   3  821.79   29.27
   6   4  -3  803.82   28.59
   6   4  -2  622.91   22.29
   6   4  -2  637.69   22.86
   6   4  -1  696.32   24.88
   6   4  -1  715.13   25.60
   6   4   0  146.54    6.24
   6   4   0  136.37    5.84
   6   4   1 1929.00   67.84
   6   4   1 1884.86   66.36
   6   4   2 1399.97   49.41
   6   4   2 1405.59   49.58
   6   4   3  957.27   33.93
   6   4   3 1000.40   35.51
   6   4   4  529.94   19.28
   6   4   4  509.32   18.56
  -6  -5  13   36.30    4.43
   6   5 -13   29.61    2.96
  -6  -5  12   33.37    4.13
   6   5 -12   45.70    3.68
  -6  -5  11  171.66    7.26
   6   5 -11  201.74    7.99
  -6  -5  10   -1.94    3.34
   6   5 -10    5.96    2.74
  -6  -5   9    6.35    3.14
   6   5  -9    1.56    2.74
  -6  -5   8  302.43   11.43
   6   5  -8  377.42   13.83
  -6  -5   7   14.18    2.80
   6   5  -7   13.13    2.93
  -6  -5   6   26.37    3.16
   6   5  -6   30.18    3.20
  -6  -5   5   35.30    3.36
   6   5  -5   35.77    3.08
  -6  -5   4   -2.24    2.92
   6   5  -4   -0.88    2.56
  -6  -5   3   33.62    3.16
   6   5  -3   25.94    2.93
   6   5  -2    1.08    2.60
   6   5  -2   -2.13    2.73
   6   5  -1   25.26    3.13
   6   5  -1   22.86    2.85
   6   5   0   43.25    3.61
   6   5   0   40.04    3.41
   6   5   1    2.77    2.94
   6   5   1   -1.61    2.90
   6   5   3    4.04    3.43
   6   5   3    7.04    3.43
   6   5   4    0.49    3.69
   6   5   4    7.22    3.57
  -6  -6  13  107.74    5.93
   6   6 -13  135.09    6.01
  -6  -6  12  205.48    8.51
   6   6 -12  260.29   10.04
  -6  -6  11  714.02   25.58
   6   6 -11  805.35   28.61
  -6  -6  10  878.62   31.33
   6   6 -10  983.46   34.84
  -6  -6   9 2118.41   74.42
   6   6  -9 2415.06   84.73
  -6  -6   8 1461.49   51.53
   6   6  -8 1625.48   57.24
  -6  -6   7 1381.30   48.79
   6   6  -7 1555.58   54.82
  -6  -6   6 1153.69   40.81
   6   6  -6 1274.08   44.99
  -6  -6   5 1835.40   64.59
   6   6  -5 1982.63   69.68
  -6  -6   4 1635.00   57.62
   6   6  -4 1685.56   59.38
  -6  -6   3  944.96   33.56
   6   6  -3  959.81   34.12
   6   6  -2  280.28   10.69
   6   6  -2  309.73   11.65
   6   6  -1   69.51    4.02
   6   6  -1   73.82    4.30
   6   6   0  917.87   32.64
   6   6   0  913.84   32.51
   6   6   1  500.64   18.29
   6   6   1  500.22   18.17
   6   6   2  180.61    7.49
   6   6   2  188.22    7.69
   6   6   3  160.54    7.02
   6   6   3  140.41    6.41
  -6  -7  12   12.75    3.78
   6   7 -12   17.83    3.65
  -6  -7  11    0.85    3.57
   6   7 -11   -1.82    3.16
  -6  -7  10    1.94    3.43
   6   7 -10    6.47    3.16
  -6  -7   9   74.50    4.32
   6   7  -9   92.29    4.68
  -6  -7   8   37.53    3.55
   6   7  -8   40.07    3.71
  -6  -7   7    4.75    2.94
   6   7  -7    3.55    2.86
  -6  -7   6   42.14    3.58
   6   7  -6   58.08    3.86
  -6  -7   5   36.18    3.26
   6   7  -5   42.02    3.50
  -6  -7   4   44.93    3.46
   6   7  -4   46.65    3.62
  -6  -7   3    8.22    2.86
   6   7  -3    5.27    3.06
   6   7  -2   -4.20    2.90
   6   7  -2    1.65    3.35
   6   7  -1   24.83    3.27
   6   7  -1   30.76    3.76
   6   7   0   -1.05    3.43
   6   7   0   -1.13    3.07
   6   7   1    1.13    3.20
   6   7   1    0.12    3.16
   6   7   2    0.52    3.65
   6   7   2   -1.30    3.33
  -6  -8  11   98.38    5.28
   6   8 -11  113.17    5.52
  -6  -8  10  421.65   15.45
   6   8 -10  530.31   19.18
  -6  -8   9    1.37    3.12
   6   8  -9    3.57    3.24
  -6  -8   8    6.27    3.16
   6   8  -8    8.21    3.07
  -6  -8   7   49.25    3.88
   6   8  -7   66.18    4.08
  -6  -8   6  213.13    8.48
   6   8  -6  236.08    9.29
  -6  -8   5  669.24   23.99
   6   8  -5  732.25   26.18
  -6  -8   4  228.93    9.01
   6   8  -4  230.42    9.17
  -6  -8   3  322.46   12.17
   6   8  -3  282.63   10.79
   6   8  -2   66.26    4.13
   6   8  -2   75.94    4.45
   6   8  -1  742.28   26.59
   6   8  -1  805.12   28.75
  -6  -9   9   17.23    3.65
   6   9  -9   23.16    3.74
  -6  -9   8    7.47    3.49
   6   9  -8    7.95    3.61
  -6  -9   7    2.59    3.40
   6   9  -7    4.26    3.37
  -6  -9   6    2.92    3.40
   6   9  -6    7.78    3.33
  -6  -9   5   -2.23    3.28
   6   9  -5   -0.81    3.17
  -6  -9   4   42.77    3.45
   6   9  -4   47.47    3.78
   6   9  -3   17.79    3.41
   6   9  -3   22.50    3.45
  -7   9  -2    0.16    2.60
   7  -9   2    9.71    2.60
  -7   8  -2    2.23    2.23
   7  -8   2  246.86    9.23
  -7   8  -3    4.34    3.20
   7  -8   3   54.81    3.89
  -7   8  -4  198.64    8.08
   7  -8   4  246.67    9.70
  -7   7  -2   13.69    2.35
   7  -7   2   23.54    2.62
  -7   7  -3    7.52    2.91
   7  -7   3    6.75    2.96
  -7   7  -4    0.20    3.32
   7  -7   4    3.57    3.57
  -7   7  -5   32.34    3.73
   7  -7   5   37.46    4.34
  -7   6  -2  328.74   11.93
   7  -6   2  446.03   16.08
  -7   6  -3  386.54   14.05
   7  -6   3  459.57   16.62
  -7   6  -4  707.77   25.26
   7  -6   4  856.92   30.44
  -7   6  -5  459.36   16.73
   7  -6   5  586.96   21.18
  -7   6  -6  364.89   13.60
   7  -6   6  423.98   15.96
   7  -5   2   38.69    2.81
  -7   5  -3   29.04    2.98
   7  -5   3   40.76    3.38
  -7   5  -4    2.26    3.07
   7  -5   4   -1.41    3.15
  -7   5  -5    0.20    3.28
   7  -5   5    5.63    3.16
  -7   5  -6   17.28    3.53
   7  -5   6   31.96    4.25
   7  -4   1 1761.08   62.06
   7  -4   1 1627.50   57.37
   7  -4   2 1429.56   50.33
   7  -4   2 1347.21   47.51
  -7   4  -3  564.08   20.15
   7  -4   3  660.24   23.54
  -7   4  -4  895.83   31.77
   7  -4   4 1073.22   37.94
  -7   4  -5  427.98   15.64
   7  -4   5  529.42   19.20
  -7   4  -6  577.92   20.75
   7  -4   6  677.61   24.40
  -7   4  -7  164.33    7.19
   7  -4   7  203.08    8.70
  -7   3  11    1.38    3.29
  -7   3  11    1.95    3.61
   7  -3   0   33.71    2.13
   7  -3   0   30.15    2.24
   7  -3   1  110.81    4.65
   7  -3   1   96.63    4.40
   7  -3   2  219.66    8.39
   7  -3   2  195.94    7.75
   7  -3   3  164.05    6.67
   7  -3   3  180.73    7.24
  -7   3  -4    3.62    2.78
   7  -3   4   -1.49    2.78
  -7   3  -5  137.34    5.94
   7  -3   5  153.06    6.70
  -7   3  -6    2.51    3.28
   7  -3   6   -1.58    3.48
  -7   3  -7    3.09    3.45
   7  -3   7    4.87    3.90
  -7   2  12  205.74    8.86
   7  -2 -12  229.96    9.06
  -7   2  11  377.41   14.10
   7  -2 -11  435.78   15.76
  -7   2  10  256.45    9.69
   7  -2 -10  295.01   10.78
  -7   2   9  372.22   13.69
   7  -2  -9  465.98   16.79
   7  -2  -1 1116.70   39.42
   7  -2  -1 1050.74   37.14
   7  -2   0  621.81   22.05
   7  -2   0  557.40   19.93
   7  -2   1  509.17   18.23
   7  -2   1  462.70   16.71
   7  -2   2  303.69   11.19
   7  -2   2  284.43   10.68
   7  -2   3 1279.94   45.14
   7  -2   3 1219.24   43.05
   7  -2   4 1090.29   38.56
   7  -2   4 1054.43   37.35
   7  -2   5  619.72   22.18
   7  -2   5  631.03   22.67
  -7   2  -6  279.65   10.81
   7  -2   6  277.42   10.81
  -7   2  -7   13.50    3.34
   7  -2   7   11.14    4.06
  -7   1  12   52.33    5.31
   7  -1 -12   55.05    4.22
  -7   1  11   19.45    3.81
   7  -1 -11   22.40    3.03
  -7   1  10   42.62    3.51
   7  -1 -10   52.86    3.11
  -7   1   9   55.19    3.30
   7  -1  -9   56.76    2.94
  -7   1   8    6.10    1.96
   7  -1  -8   11.00    1.73
   7  -1  -7   33.70    1.93
   7  -1  -3   21.77    1.64
   7  -1  -3   24.37    1.80
   7  -1  -2    8.71    1.68
   7  -1  -2    9.95    2.15
   7  -1  -1    7.80    2.35
   7  -1  -1   11.35    2.04
   7  -1   0   13.29    2.32
   7  -1   0    9.96    2.40
   7  -1   1   94.83    4.53
   7  -1   1  110.05    4.73
   7  -1   2  181.14    7.10
   7  -1   2  188.28    7.63
   7  -1   3    0.72    2.70
   7  -1   3    3.30    2.97
   7  -1   4   93.88    4.80
   7  -1   4   83.15    4.47
   7  -1   5    7.24    3.39
   7  -1   5   -2.26    3.19
   7  -1   6   13.95    3.40
   7  -1   6    9.13    3.57
  -7   0  12  629.37   22.94
   7   0 -12  708.40   25.33
  -7   0  11  490.06   17.94
   7   0 -11  551.07   19.80
  -7   0  10  487.11   17.72
   7   0 -10  549.16   19.62
  -7   0   9  840.50   29.82
   7   0  -9  945.41   33.41
  -7   0   8 1787.19   62.86
   7   0  -8 1883.47   66.20
  -7   0   7 3256.67  114.43
   7   0  -7 3356.41  117.87
  -7   0   6 1363.72   48.09
   7   0  -6 1324.52   46.69
   7   0  -5 1060.40   37.41
   7   0  -5 1184.31   41.73
   7   0  -4 1646.79   57.89
   7   0  -4 1816.58   63.89
   7   0  -3 1608.69   56.57
   7   0  -3 1721.34   60.56
   7   0  -2 1470.89   51.74
   7   0  -2 1471.29   51.83
   7   0  -1  149.18    6.03
   7   0  -1  158.94    6.28
   7   0   0  106.15    4.68
   7   0   0   94.51    4.53
   7   0   1   85.54    4.13
   7   0   1   84.09    4.25
   7   0   2  185.16    7.31
   7   0   2  188.29    7.59
   7   0   3  172.72    7.08
   7   0   3  153.89    6.56
   7   0   4  680.62   24.37
   7   0   4  651.58   23.36
   7   0   5  382.95   14.25
   7   0   5  375.66   13.88
   7   0   6  323.64   12.22
   7   0   6  303.51   11.41
  -7  -1  13    2.80    5.04
   7   1 -13    1.99    3.38
  -7  -1  12    9.28    4.74
   7   1 -12    2.18    3.52
  -7  -1  11    2.75    4.00
   7   1 -11   -3.51    3.15
  -7  -1  10    3.95    3.55
   7   1 -10    1.97    2.62
  -7  -1   9   20.86    3.25
   7   1  -9   23.51    2.90
  -7  -1   8   12.12    2.73
   7   1  -8   12.68    2.60
  -7  -1   7   58.76    3.36
   7   1  -7   69.05    3.60
  -7  -1   6    5.08    2.24
   7   1  -6    7.84    2.24
   7   1  -5   55.89    3.04
   7   1  -3    2.40    2.24
   7   1  -3    2.00    2.04
   7   1  -2   14.12    2.35
   7   1  -2   11.15    2.55
   7   1  -1    2.60    2.20
   7   1  -1    0.68    2.44
   7   1   0    1.20    2.36
   7   1   0   -2.56    2.60
   7   1   1    5.86    2.93
   7   1   1    4.98    2.61
   7   1   2   -3.10    2.94
   7   1   2    2.61    2.65
   7   1   3   -0.65    3.10
   7   1   3   -0.44    2.78
   7   1   4   25.21    3.31
   7   1   4   21.17    3.39
   7   1   5   16.17    3.28
   7   1   5   11.71    3.24
   7   1   6   95.93    5.32
   7   1   6   77.84    4.96
  -7  -2  13  339.35   13.20
   7   2 -13  413.58   15.16
  -7  -2  12   82.28    5.30
   7   2 -12  100.80    4.78
  -7  -2  11    7.47    4.00
   7   2 -11   -1.70    3.11
  -7  -2  10    2.10    3.51
   7   2 -10    9.83    2.86
  -7  -2   9   14.39    3.05
   7   2  -9   21.87    2.85
  -7  -2   8  134.67    5.90
   7   2  -8  163.00    6.50
  -7  -2   7  321.55   11.94
   7   2  -7  336.57   12.34
  -7  -2   6  144.85    6.04
   7   2  -6  160.42    6.41
  -7  -2   5  106.79    4.77
   7   2  -5  105.15    4.60
   7   2  -4  423.22   15.36
   7   2  -4  373.50   13.56
   7   2  -3 1244.27   43.93
   7   2  -3 1157.46   40.80
   7   2  -2  525.20   18.89
   7   2  -2  511.19   18.38
   7   2  -1 1133.90   40.06
   7   2  -1 1098.64   38.79
   7   2   0 1803.74   63.51
   7   2   0 1829.02   64.27
   7   2   1 1549.16   54.53
   7   2   1 1594.58   56.14
   7   2   2  905.22   32.13
   7   2   2  967.24   34.27
   7   2   3 2054.21   72.17
   7   2   3 1973.08   69.30
   7   2   4  497.08   18.01
   7   2   4  564.28   20.40
   7   2   5  303.99   11.53
   7   2   5  280.03   10.84
  -7  -3  13   26.05    4.71
   7   3 -13   23.21    3.25
  -7  -3  12   67.93    5.14
   7   3 -12   76.73    4.45
  -7  -3  11   39.47    4.41
   7   3 -11   35.87    3.47
  -7  -3  10   28.30    4.00
   7   3 -10   34.46    3.47
  -7  -3   9   -4.02    3.22
   7   3  -9    0.69    2.86
  -7  -3   8   19.96    3.50
   7   3  -8   27.75    2.85
  -7  -3   7    6.38    2.93
   7   3  -7    5.29    2.69
  -7  -3   6    5.49    2.73
   7   3  -6    8.86    2.60
  -7  -3   5    2.76    2.56
   7   3  -5    3.89    2.69
   7   3  -4    0.20    2.89
   7   3  -4   -3.04    2.04
   7   3  -3    3.65    2.20
   7   3  -3    1.20    2.60
   7   3  -2   10.54    2.49
   7   3  -2    7.82    2.69
   7   3  -1   20.59    2.73
   7   3  -1   22.79    2.85
   7   3   0    4.46    2.65
   7   3   0    0.89    2.69
   7   3   1   -0.49    2.86
   7   3   1    0.08    2.94
   7   3   2    0.49    2.98
   7   3   2   -0.92    3.18
   7   3   3   14.65    3.56
   7   3   3   16.42    3.19
   7   3   4   -1.50    3.33
   7   3   4    3.89    3.20
  -7  -4  12  258.07   10.42
   7   4 -12  331.54   12.28
  -7  -4  11  742.88   26.69
   7   4 -11  900.21   31.95
  -7  -4  10 1180.66   41.89
   7   4 -10 1391.28   48.98
  -7  -4   9 1690.80   59.57
   7   4  -9 2033.14   71.37
  -7  -4   8  668.01   24.01
   7   4  -8  760.50   27.10
  -7  -4   7  843.23   30.05
   7   4  -7  968.98   34.35
  -7  -4   6  774.39   27.62
   7   4  -6  853.07   30.35
  -7  -4   5 1047.81   37.12
   7   4  -5 1138.11   40.30
  -7  -4   4 1680.34   59.28
   7   4  -4 1430.31   50.45
   7   4  -3  386.52   14.13
   7   4  -3  416.35   15.25
   7   4  -2  619.19   22.22
   7   4  -2  664.99   23.79
   7   4  -1  499.23   18.11
   7   4  -1  506.06   18.31
   7   4   0 1215.95   42.95
   7   4   0 1216.75   42.99
   7   4   1  988.19   35.04
   7   4   1  978.50   34.72
   7   4   2 1242.13   43.86
   7   4   2 1216.64   42.97
   7   4   3  622.32   22.39
   7   4   3  582.16   21.01
  -7  -5  12   15.71    4.63
   7   5 -12   15.71    3.29
  -7  -5  11    2.35    3.84
   7   5 -11   -0.65    3.08
  -7  -5  10   18.11    3.59
   7   5 -10   20.24    2.87
  -7  -5   9  161.75    7.02
   7   5  -9  200.84    7.87
  -7  -5   8   53.02    3.82
   7   5  -8   77.08    4.27
  -7  -5   7   10.99    2.94
   7   5  -7    4.27    2.74
  -7  -5   6   97.31    4.95
   7   5  -6  110.83    5.23
  -7  -5   5   26.90    3.17
   7   5  -5   23.01    2.86
  -7  -5   4   67.99    3.82
   7   5  -4   63.51    3.79
   7   5  -3   -0.40    2.77
   7   5  -3   -1.37    3.02
   7   5  -2   73.48    4.03
   7   5  -2   70.37    4.11
   7   5  -1   85.03    4.43
   7   5  -1   94.55    4.76
   7   5   0    6.47    3.07
   7   5   0   11.43    3.11
   7   5   1   41.78    3.48
   7   5   1   47.57    3.64
   7   5   2   -0.93    3.24
   7   5   2    4.18    3.29
  -7  -6  11   83.47    5.07
   7   6 -11  101.17    4.95
  -7  -6  10  357.04   13.49
   7   6 -10  441.04   16.04
  -7  -6   9  175.41    7.56
   7   6  -9  195.83    7.80
  -7  -6   8  512.49   18.61
   7   6  -8  621.95   22.29
  -7  -6   7  531.44   19.20
   7   6  -7  633.94   22.72
  -7  -6   6 1438.69   50.74
   7   6  -6 1527.43   53.81
  -7  -6   5 1851.96   65.13
   7   6  -5 1931.00   67.88
  -7  -6   4 1135.62   40.18
   7   6  -4 1058.97   37.47
   7   6  -3  703.22   25.14
   7   6  -3  767.82   27.41
   7   6  -2  239.15    9.34
   7   6  -2  256.56    9.86
   7   6  -1 1207.98   42.70
   7   6  -1 1285.27   45.40
   7   6   0  636.10   22.82
   7   6   0  699.34   25.02
   7   6   1  492.84   17.91
   7   6   1  518.84   18.85
  -7  -7  10   16.97    3.61
   7   7 -10   20.38    3.41
  -7  -7   9    7.74    3.57
   7   7  -9    6.85    3.44
  -7  -7   8   10.94    3.32
   7   7  -8   10.61    3.12
  -7  -7   7   17.44    3.16
   7   7  -7   22.34    3.28
  -7  -7   6    5.79    3.12
   7   7  -6    3.93    3.03
  -7  -7   5   16.91    3.23
   7   7  -5   20.15    3.28
   7   7  -4    5.43    3.48
   7   7  -3   27.47    3.28
   7   7  -3   32.97    3.44
   7   7  -2   98.35    4.95
   7   7  -2   88.65    4.75
   7   7  -1   11.62    3.25
   7   7  -1   15.59    3.49
  -7  -8   8  247.23    9.55
   7   8  -8  294.97   11.22
  -7  -8   7  592.53   21.32
   7   8  -7  668.06   23.96
  -7  -8   6  637.88   22.90
   7   8  -6  693.09   24.81
  -7  -8   5  319.97   12.02
   7   8  -5  344.45   12.99
   7   8  -4  187.55    7.68
   7   8  -4  209.29    8.45
   8  -5   2   35.13    3.19
   8  -5   2   24.85    3.36
   8  -5   3    8.35    3.37
   8  -5   3    3.77    4.05
   8  -5   4   -2.60    4.19
   8  -5   4    2.97    4.06
   8  -4   1  908.25   32.25
   8  -4   1  799.67   28.50
   8  -4   2  516.65   18.56
   8  -4   2  453.58   16.54
   8  -4   4  450.14   16.44
   8  -4   4  420.92   15.71
   8  -3   3   19.46    3.32
   8  -3   3   15.58    3.84
   8  -3   4  193.21    7.99
   8  -3   4  179.37    7.71
   8  -2  -1  688.27   24.45
   8  -2  -1  660.52   23.53
   8  -2   0  949.45   33.54
   8  -2   0  939.38   33.30
   8  -2   1  485.03   17.46
   8  -2   1  435.85   15.89
   8  -2   2 1970.53   69.23
   8  -2   2 1914.40   67.32
   8  -2   3 1316.17   46.50
   8  -2   3 1379.31   48.61
   8  -2   4 1932.07   68.00
   8  -2   4 1861.88   65.49
  -8   1  11    6.10    3.61
   8  -1 -11    3.29    2.84
  -8   1  10    1.78    2.51
   8  -1 -10    1.66    1.86
   8  -1  -3    0.60    1.53
   8  -1  -3    2.21    1.73
   8  -1  -2   21.38    2.13
   8  -1  -2   27.49    2.77
   8  -1  -1   48.51    2.97
   8  -1  -1   51.72    3.57
   8  -1   1  248.76    9.39
   8  -1   1  223.20    8.75
   8  -1   2   14.34    2.87
   8  -1   2   17.33    3.31
   8  -1   3  136.65    6.15
   8  -1   3  127.10    6.04
   8  -1   4    6.73    3.69
   8  -1   4    1.26    3.74
  -8   0  11   15.46    4.05
   8   0 -11   18.10    3.33
  -8   0  10  182.52    7.52
   8   0 -10  221.75    8.46
  -8   0   9  265.62   10.01
   8   0  -9  279.64   10.26
  -8   0   8 1278.53   45.32
   8   0  -8 1037.01   36.73
   8   0  -7  361.03   13.00
   8   0  -7  341.99   12.36
   8   0  -6 1070.25   37.85
   8   0  -6 1015.56   35.95
   8   0  -5 1168.41   41.28
   8   0  -5 1293.41   45.66
   8   0  -4 2184.25   76.83
   8   0  -4 2191.09   77.07
   8   0  -3 2159.12   75.83
   8   0  -3 2347.99   82.54
   8   0  -2  700.34   24.88
   8   0  -2  724.46   25.81
   8   0  -1  607.58   21.65
   8   0  -1  594.70   21.33
   8   0   0  315.72   11.64
   8   0   0  314.96   11.73
   8   0   1  231.77    8.88
   8   0   1  204.53    8.15
   8   0   2   19.04    3.27
   8   0   2   11.81    3.23
   8   0   3  248.70    9.77
   8   0   3  224.71    8.83
  -8  -1  11   -1.55    4.02
   8   1 -11    0.90    3.37
  -8  -1  10    1.90    3.60
   8   1 -10    7.65    2.99
  -8  -1   9   83.72    4.77
   8   1  -9   89.85    4.24
  -8  -1   8  155.30    6.53
   8   1  -8  166.07    6.53
  -8  -1   7   59.15    3.62
   8   1  -7   53.75    3.38
   8   1  -6   -0.76    2.41
   8   1  -6    0.92    2.25
   8   1  -5    8.85    2.49
   8   1  -5    2.37    2.17
   8   1  -4    4.19    2.25
   8   1  -4    5.67    2.74
   8   1  -3    8.89    2.85
   8   1  -3    6.44    2.41
   8   1  -2    2.70    2.74
   8   1  -2    2.09    2.45
   8   1  -1   10.11    2.57
   8   1  -1   13.42    2.94
   8   1   0   43.18    3.27
   8   1   0   39.40    3.55
   8   1   1   -0.92    2.83
   8   1   1   -0.69    3.07
   8   1   2   10.69    3.52
   8   1   2    5.91    3.28
   8   1   3   -0.04    3.53
   8   1   3    6.94    3.24
  -8  -2  11  896.62   32.01
   8   2 -11 1104.35   39.03
  -8  -2  10  857.73   30.64
   8   2 -10  973.50   34.48
  -8  -2   9 1080.71   38.30
   8   2  -9 1246.34   43.95
  -8  -2   8   31.47    3.51
   8   2  -8   33.96    3.07
  -8  -2   7  225.34    8.82
   8   2  -7  223.65    8.67
   8   2  -6   67.04    3.46
   8   2  -6   79.51    4.19
   8   2  -4  491.74   17.79
   8   2  -4  438.61   15.82
   8   2  -3   15.02    2.82
   8   2  -3   18.19    3.10
   8   2  -2  396.30   14.50
   8   2  -2  375.88   13.74
   8   2  -1  664.18   23.71
   8   2  -1  694.83   24.84
   8   2   0  420.01   15.43
   8   2   0  418.80   15.30
   8   2   1  443.45   16.22
   8   2   1  411.88   15.10
   8   2   2 1258.68   44.48
   8   2   2 1238.40   43.71
   8   2   3  347.61   13.09
   8   2   3  320.85   12.04
  -8  -3  11   52.85    4.59
   8   3 -11   69.46    4.39
  -8  -3  10   87.17    5.30
   8   3 -10  116.46    5.55
  -8  -3   9   -0.04    3.64
   8   3  -9    2.35    3.23
  -8  -3   8   74.74    4.64
   8   3  -8   84.39    4.52
  -8  -3   7   30.13    3.67
   8   3  -7   25.77    3.43
  -8  -3   6   39.34    3.51
   8   3  -6   39.83    3.55
   8   3  -5   15.24    2.98
   8   3  -5   10.59    2.66
   8   3  -4   12.78    2.74
   8   3  -4   14.66    3.06
   8   3  -3    8.87    2.75
   8   3  -3   12.99    2.98
   8   3  -2    2.10    2.75
   8   3  -2    6.54    2.78
   8   3  -1   26.26    3.31
   8   3  -1   22.18    3.31
   8   3   0    5.75    3.03
   8   3   0    6.31    3.16
   8   3   1   22.78    3.73
   8   3   1   21.33    3.53
   8   3   2    0.69    3.29
   8   3   2    1.22    3.33
  -8  -4  11  174.87    7.68
   8   4 -11  236.68    9.31
  -8  -4  10  302.02   11.60
   8   4 -10  385.35   14.12
  -8  -4   9  123.53    6.08
   8   4  -9  148.11    6.40
  -8  -4   8  369.95   13.83
   8   4  -8  438.72   16.01
  -8  -4   7  248.21    9.90
   8   4  -7  282.42   10.58
  -8  -4   6  673.48   24.23
   8   4  -6  684.79   24.43
   8   4  -4  188.13    7.59
   8   4  -4  169.27    6.99
   8   4  -3  309.44   11.60
   8   4  -3  342.20   12.68
   8   4  -2  305.73   11.57
   8   4  -2  322.03   11.97
   8   4  -1  639.43   22.96
   8   4  -1  637.00   22.80
   8   4   0  532.63   19.23
   8   4   0  537.89   19.48
   8   4   1 1372.77   48.37
   8   4   1 1434.15   50.57
  -8  -5  10    2.36    4.03
   8   5 -10    7.72    3.17
  -8  -5   9   -1.87    3.89
   8   5  -9    0.29    3.08
  -8  -5   8    0.61    3.77
   8   5  -8    1.17    3.12
  -8  -5   7   18.25    3.60
   8   5  -7   18.83    3.19
  -8  -5   6    4.29    3.39
   8   5  -6    5.22    3.16
   8   5  -5   17.68    3.28
   8   5  -5   21.36    3.28
   8   5  -4    6.15    3.32
   8   5  -4    9.92    3.16
   8   5  -2  128.58    5.87
   8   5  -2  131.71    5.84
   8   5  -1    1.01    3.20
   8   5  -1    1.83    3.41
  -8  -6   9  137.41    6.51
   8   6  -9  162.41    6.92
  -8  -6   8  121.80    5.97
   8   6  -8  116.48    5.32
  -8  -6   7  566.99   20.62
   8   6  -7  595.80   21.38
  -8  -6   6  774.16   27.72
   8   6  -6  810.68   28.80
   8   6  -5  479.23   17.41
   8   6  -5  427.28   15.75
   8   6  -3  175.12    7.44
   8   6  -3  200.35    8.00
   9  -3   1   28.00    4.23
   9  -3   1   41.15    3.70
   9  -2   0    8.64    3.82
   9  -2   0   10.14    3.08
   9  -2   1  249.37   10.07
   9  -2   1  273.45   10.40
   9  -1  -2    9.96    2.47
   9  -1  -2    9.23    3.19
   9  -1  -1    2.56    3.60
   9  -1  -1    2.83    2.76
   9  -1   0   66.07    3.98
   9  -1   0   59.78    4.43
   9  -1   1    7.75    4.10
   9  -1   1    5.89    3.29
   9   0  -4 2064.44   72.81
   9   0  -4 1924.48   67.87
   9   0  -3 1764.37   62.19
   9   0  -3 1569.77   55.26
   9   0  -2 1980.46   69.71
   9   0  -2 1893.83   66.60
   9   0  -1 1271.26   44.94
   9   0  -1 1228.70   43.32
   9   0   0 1650.02   58.15
   9   0   0 1668.69   58.68
   9   0   1  877.28   31.26
   9   0   1  955.34   34.02
   9   1  -9    2.32    3.17
   9   1  -9    5.07    2.88
   9   1  -8    1.62    2.96
   9   1  -8    2.03    2.88
   9   1  -7   95.17    4.66
   9   1  -7   90.88    4.42
   9   1  -6   -1.10    2.92
   9   1  -6   -0.89    2.76
   9   1  -5   -0.97    3.19
   9   1  -5   -1.70    2.87
   9   1  -4    1.17    2.96
   9   1  -4   -0.72    2.92
   9   1  -3   -1.05    3.44
   9   1  -3    1.98    2.99
   9   1  -2   22.81    4.02
   9   1  -2   19.28    2.99
   9   1  -1    6.25    3.73
   9   1  -1    3.78    3.04
   9   1   0    2.36    3.54
   9   1   0    9.30    3.65
  -9  -2   9  527.09   19.31
   9   2  -9  591.72   21.30
   9   2  -3  280.86   10.54
   9   2  -3  315.16   11.96
   9   2  -2  262.57   10.26
   9   2  -2  277.35   10.62
   9   2  -1  358.37   13.40
   9   2  -1  375.03   13.90
  -9  -3   8   34.00    4.19
   9   3  -8   42.04    3.98
   9   3  -7    1.38    3.24
   9   3  -7    0.00    3.53
   9   3  -6    4.18    3.29
   9   3  -6   -1.58    3.53
   9   3  -5    1.98    3.40
   9   3  -5    3.57    3.20
   9   3  -4   -4.34    3.45
   9   3  -4   -0.57    3.29
   9   3  -3    3.74    3.53
   9   3  -3    4.87    3.74
   9   3  -2    5.36    3.74
   9   3  -2    5.32    3.70
   9   4  -5   91.86    5.20
   9   4  -5  110.03    5.48
   9   4  -4  167.48    7.24
   9   4  -4  185.50    7.73
   0   0  -6  348.78   11.01
   0   0   6  297.90    9.52
   0   0  -7  501.80   15.64
   0   0   7  431.33   13.50
   0   0  -8  176.44    6.11
   0   0   8  159.15    5.70
   0   0  -9  402.32   12.66
   0   0   9  363.45   11.63
   0   0 -10  238.29    7.90
   0   0  10  210.95    7.33
   0   0 -11  799.78   24.59
   0   0  11  746.73   23.11
   0   0 -12  441.83   14.05
   0   0  12  409.77   13.20
   0   0 -13   58.48    4.17
   0   0  13   61.38    4.38
   0   0 -14  295.40   10.36
   0  -1  14   25.83    4.49
   0   1 -14   26.76    4.06
   0  -1  13    6.53    3.64
   0   1 -13    7.73    3.26
   0  -1  12   20.79    3.37
   0   1 -12   24.39    2.99
   0  -1  11   13.35    2.89
   0   1 -11   13.28    2.60
   0  -1  10   74.07    3.74
   0   1 -10   74.68    3.41
   0  -1   9   66.45    3.28
   0   1  -9   78.11    3.31
   0  -1   8   29.40    2.44
   0   1  -8   31.35    2.38
   0  -1   7   -0.95    1.67
   0   1  -7    0.79    1.73
   0  -1   6   24.03    1.92
   0   1  -6   31.48    2.12
   0  -1   5   25.84    1.75
   0   1  -5   33.71    1.97
   0  -1   4   25.68    1.58
   0   1  -4   32.36    1.81
   0  -1   3   27.00    1.51
   0   1  -3   31.80    1.68
   0  -1   2   77.53    2.60
   0   1  -2   73.61    2.51
   0  -1   1   54.55    1.87
   0   1  -1   51.53    1.73
   0   1   0  130.13    4.08
   0  -1  -1  305.53    9.41
   0   1   1  290.42    8.93
   0  -1  -2  240.23    7.63
   0   1   2  216.92    6.96
   0  -1  -3  187.17    6.16
   0   1   3  167.53    5.55
   0  -1  -4    1.23    1.78
   0   1   4    3.56    1.66
   0  -1  -5  659.28   20.29
   0   1   5  605.64   18.66
   0  -1  -6   81.41    3.53
   0   1   6   64.46    3.03
   0  -1  -7  124.07    4.66
   0   1   7  112.78    4.43
   0  -1  -8  517.00   16.11
   0   1   8  507.07   15.88
   0  -1  -9  109.74    4.43
   0   1   9   98.14    4.40
   0  -1 -10    8.16    2.75
   0   1  10    6.85    2.99
   0  -1 -11   83.09    4.10
   0   1  11   84.85    4.44
   0  -1 -12   34.02    3.36
   0   1  12   23.36    3.66
   0  -1 -13  266.42    9.14
   0   1  13  249.28    9.21
   0  -2  14   14.77    4.19
   0   2 -14   12.49    3.67
   0  -2  13  624.66   19.49
   0   2 -13  640.10   19.86
   0  -2  12 1140.09   34.81
   0   2 -12 1188.32   36.21
   0  -2  11 1929.62   58.49
   0   2 -11 2043.36   61.82
   0  -2  10 2866.15   86.57
   0   2 -10 2922.21   88.18
   0  -2   9 1201.14   36.54
   0   2  -9 1275.34   38.69
   0  -2   8 4583.97  138.11
   0   2  -8 4890.00  147.32
   0  -2   7 4207.50  126.81
   0   2  -7 4374.36  131.75
   0  -2   6 5336.07  160.70
   0  -2   5 2415.93   72.89
   0   2  -5 2354.65   71.04
   0  -2   4   21.13    1.39
   0   2  -4   26.79    1.68
   0   2  -3  155.11    5.00
   0   2  -3  146.55    4.84
   0  -2   2  480.32   14.68
   0   2  -2  481.28   14.68
   0  -2   0  432.43   13.32
   0   2   0  404.76   12.45
   0  -2  -1  189.79    6.22
   0   2   1  179.55    5.89
   0  -2  -2  289.39    9.19
   0   2   2  260.29    8.29
   0  -2  -3 1862.84   56.23
   0   2   3 1948.25   58.85
   0   2   4 4967.38  149.41
   0  -2  -5 1341.53   40.73
   0   2   5 1249.56   37.99
   0  -2  -6 1456.39   44.19
   0   2   6 1340.34   40.74
   0  -2  -7  247.14    8.21
   0   2   7  236.25    8.01
   0  -2  -8  672.12   20.75
   0   2   8  627.95   19.56
   0  -2  -9  683.71   21.12
   0   2   9  602.38   18.88
   0  -2 -10  730.12   22.55
   0   2  10  704.12   21.84
   0  -2 -11  655.60   20.37
   0   2  11  610.62   19.22
   0  -2 -12  154.61    6.03
   0   2  12  135.72    6.19
   0  -2 -13  468.23   14.93
   0   2  13  474.85   15.80
   0   3 -14   39.90    3.85
   0   3 -14   29.47    3.67
   0   3 -13   44.76    3.53
   0   3 -13   39.96    3.39
   0  -3  12   71.34    3.97
   0   3 -12   80.06    3.94
   0  -3  11   32.60    2.72
   0   3 -11   29.57    2.69
   0  -3  10    1.71    2.27
   0   3 -10    2.47    2.13
   0  -3   9  840.23   25.68
   0   3  -9  917.77   28.00
   0  -3   8   31.05    2.41
   0   3  -8   38.98    2.28
   0   3  -7    0.62    1.22
   0   3  -7   -0.33    1.67
   0   3  -6  274.09    8.60
   0   3  -6  282.60    9.00
   0   3  -5   -0.10    1.52
   0   3  -5    0.00    1.14
   0   3  -4 1544.78   46.71
   0   3  -4 1587.19   47.94
   0  -3   3  418.01   12.89
   0   3  -3  439.65   13.50
   0  -3   2 2767.51   83.30
   0   3  -1 3266.87   98.29
   0  -3   0  394.58   12.36
   0   3   0  354.90   11.07
   0  -3  -1  971.40   29.52
   0   3   1  917.44   27.88
   0  -3  -2  223.92    7.38
   0   3   2  214.18    7.09
   0  -3  -3   71.92    3.24
   0   3   3   76.85    3.41
   0  -3  -4  266.48    8.73
   0   3   4  258.43    8.54
   0  -3  -5    0.13    2.22
   0   3   5    1.41    2.32
   0  -3  -6   32.37    2.87
   0   3   6   29.01    2.83
   0  -3  -7    5.21    2.45
   0   3   7    4.34    2.65
   0  -3  -8   19.79    2.91
   0   3   8   22.06    3.07
   0  -3  -9   27.21    3.09
   0   3   9   26.00    3.46
   0  -3 -10    0.92    2.99
   0   3  10    2.96    3.49
   0  -3 -11   -2.06    3.53
   0   3  11    2.64    4.05
   0  -3 -12   18.15    3.64
   0   3  12   19.78    4.58
   0   4 -14  592.53   18.57
   0   4 -14  561.71   17.63
   0   4 -13  516.55   16.14
   0   4 -13  528.20   16.56
   0   4 -12  914.06   27.94
   0   4 -12  904.90   27.70
   0   4 -11 1014.98   30.94
   0   4 -11  996.47   30.43
   0   4 -10   17.74    2.07
   0   4 -10   14.27    2.21
   0   4  -9 2879.62   86.89
   0   4  -9 2794.03   84.36
   0   4  -8 2905.12   87.58
   0   4  -8 2831.58   85.47
   0   4  -7 5993.29  180.36
   0   4  -7 5819.43  175.20
   0   4  -6 4392.95  132.34
   0   4  -6 4490.92  135.19
   0   4  -5 2370.05   71.57
   0   4  -5 2342.39   70.66
   0  -4   1 1284.56   38.97
   0   4  -1 1257.05   38.09
   0  -4   0  598.53   18.46
   0   4   0  613.75   18.88
   0  -4  -1  257.72    8.36
   0   4   1  249.29    8.14
   0  -4  -2  486.77   15.21
   0   4   2  461.08   14.43
   0  -4  -3 1582.50   48.02
   0   4   3 1405.69   42.70
   0  -4  -4 1613.88   48.97
   0   4   4 1605.37   48.67
   0  -4  -5 2430.67   73.44
   0   4   5 2326.65   70.35
   0  -4  -6    5.26    2.62
   0   4   6    9.33    2.78
   0  -4  -7 2165.41   65.50
   0   4   7 1928.77   58.49
   0  -4  -8 2167.55   65.55
   0   4   8 2029.21   61.52
   0  -4  -9  965.69   29.59
   0   4   9  917.61   28.38
   0  -4 -10  691.30   21.46
   0   4  10  649.60   20.43
   0  -4 -11   16.47    3.17
   0   4  11   14.50    4.41
   0   5 -14   81.94    4.30
   0   5 -14   90.76    4.85
   0   5 -13   90.05    4.22
   0   5 -13   92.77    4.36
   0   5 -12   -0.55    2.59
   0   5 -12   -4.79    2.72
   0   5 -11    4.31    2.23
   0   5 -11    5.80    2.53
   0   5 -10  325.42   10.45
   0   5 -10  330.74   10.45
   0   5  -9    1.09    1.73
   0   5  -9   -0.16    2.13
   0   5  -8   11.54    1.85
   0   5  -8    9.85    2.18
   0   5  -7   66.00    2.82
   0   5  -7   63.96    3.20
   0   5  -6    9.83    1.81
   0   5  -6    8.22    2.06
   0  -5   5  937.39   28.55
   0   5  -5  947.53   28.84
   0  -5   4   10.10    1.85
   0   5  -4    9.31    1.80
   0  -5   3  975.04   29.70
   0   5  -3  901.84   27.49
   0  -5   2 2587.58   78.06
   0   5  -2 2405.19   72.57
   0  -5   1   74.46    3.44
   0   5  -1   64.31    3.06
   0  -5   0  545.19   17.02
   0   5   0  581.65   17.96
   0  -5  -1   74.54    3.45
   0   5   1   82.18    3.78
   0  -5  -2    6.97    2.26
   0   5   2    4.28    2.13
   0  -5  -3   60.73    3.32
   0   5   3   63.46    3.42
   0  -5  -4   29.93    2.67
   0   5   4   25.18    3.06
   0  -5  -5  426.37   13.58
   0   5   5  390.92   12.56
   0  -5  -6    3.30    2.47
   0   5   6   10.74    3.03
   0  -5  -7   27.25    2.95
   0   5   7   26.21    3.29
   0  -5  -8  142.97    5.71
   0   5   8  150.00    6.32
   0  -5  -9   79.66    4.30
   0   5   9   73.69    4.57
   0  -5 -10   75.18    4.37
   0   5  10   70.42    5.03
   0  -5 -11   31.56    3.72
   0   5  11   23.66    4.52
   0   6 -13  780.57   24.05
   0   6 -13  769.90   23.80
   0   6 -12  919.96   28.16
   0   6 -12  841.20   25.88
   0   6 -11  144.80    5.34
   0   6 -11  127.79    5.04
   0   6 -10  595.10   18.37
   0   6 -10  563.19   17.53
   0   6  -9  200.67    6.67
   0   6  -9  195.06    6.81
   0   6  -8  860.93   26.32
   0   6  -8  879.18   26.95
   0   6  -7    9.78    2.05
   0   6  -7    6.28    2.31
   0   6  -6   20.67    2.20
   0  -6   5   63.89    3.02
   0   6  -5   63.85    3.02
   0  -6   4  268.90    8.74
   0   6  -4  258.52    8.41
   0  -6   3 4450.97  133.99
   0   6  -3 4323.44  130.16
   0  -6   2 1163.45   35.47
   0   6  -2 1065.37   32.46
   0  -6   1 1438.67   43.73
   0   6  -1 1351.35   41.01
   0  -6   0  789.19   24.36
   0   6   0  730.25   22.46
   0  -6  -2 3396.69  102.39
   0   6   2 3114.95   93.97
   0  -6  -3 2021.35   61.22
   0   6   3 1885.23   57.12
   0  -6  -4 1723.76   52.28
   0   6   4 1720.11   52.21
   0  -6  -5   44.66    3.33
   0   6   5   36.99    3.57
   0  -6  -6 1982.80   60.10
   0   6   6 1874.31   56.90
   0  -6  -7 2479.92   74.94
   0   6   7 2244.10   68.04
   0  -6  -8 1755.08   53.17
   0   6   8 1604.33   48.87
   0  -6  -9 1506.48   45.69
   0   6   9 1390.17   42.53
   0  -6 -10  566.03   17.76
   0   6  10  521.89   16.82
   0   7 -14   -1.01    4.01
   0   7 -14    0.35    4.25
   0   7 -13   43.05    3.66
   0   7 -13   46.53    3.84
   0   7 -12  161.65    5.96
   0   7 -12  157.89    6.20
   0   7 -11    2.51    2.65
   0   7 -11    0.00    3.33
   0   7 -10   11.57    2.57
   0   7 -10   12.34    3.07
   0   7  -9   66.31    3.21
   0   7  -9   62.02    3.68
   0   7  -8    3.40    2.23
   0   7  -8    1.27    2.44
   0   7  -7   80.40    3.55
   0   7  -7   87.00    4.19
   0  -7   6    2.75    2.01
   0   7  -6    1.95    2.25
   0  -7   5    2.47    2.11
   0   7  -5   -2.28    2.28
   0  -7   4   10.34    2.24
   0   7  -4   10.48    2.21
   0  -7   3   20.90    2.53
   0   7  -3   23.30    2.46
   0  -7   2   60.09    3.33
   0   7  -2   56.07    3.26
   0  -7   1   16.17    2.64
   0   7  -1   12.55    2.70
   0  -7   0   29.32    2.97
   0   7   0   32.03    2.74
   0  -7  -1   62.15    3.83
   0   7   1   59.91    3.44
   0  -7  -2    7.53    2.55
   0   7   2    6.27    2.72
   0  -7  -3   10.76    2.80
   0   7   3   11.53    2.93
   0  -7  -4    5.59    3.08
   0   7   4   10.31    3.41
   0  -7  -5   17.10    3.17
   0   7   5   17.98    3.64
   0  -7  -6    2.54    2.91
   0   7   6    3.59    3.96
   0  -7  -7   28.03    3.51
   0   7   7   24.14    4.03
   0  -7  -8   -8.60    3.37
   0   7   8    1.93    3.62
   0  -7  -9   -0.14    3.03
   0   7   9   -0.07    3.92
   0   8 -13  291.86    9.88
   0   8 -13  296.64   10.23
   0   8 -12  199.16    7.22
   0   8 -12  192.97    7.39
   0   8 -11  199.97    6.99
   0   8 -11  217.04    7.99
   0   8 -10  462.90   14.58
   0   8 -10  458.50   14.68
   0   8  -9 1345.66   41.00
   0   8  -9 1381.74   41.98
   0   8  -8  548.58   17.11
   0   8  -8  577.43   18.12
   0   8  -7  483.86   15.21
   0  -8   6  183.46    6.43
   0   8  -6  172.94    6.23
   0  -8   5  555.59   17.31
   0   8  -5  517.38   16.19
   0  -8   4 4923.63  148.27
   0   8  -4 4900.40  147.48
   0  -8   3  649.51   20.26
   0   8  -3  627.63   19.53
   0  -8   2  895.99   27.59
   0   8  -2  946.73   29.05
   0  -8   1 2209.70   66.95
   0   8  -1 2193.77   66.35
   0  -8   0 2914.14   88.00
   0   8   0 2833.66   85.47
   0  -8  -1 5308.47  159.72
   0   8   1 5281.79  158.89
   0  -8  -2 2355.12   71.24
   0   8   2 2297.22   69.60
   0  -8  -3 1910.72   57.94
   0   8   3 1940.30   58.96
   0  -8  -4  910.19   28.01
   0   8   4  934.18   28.85
   0  -8  -5  865.44   26.62
   0   8   5  911.66   28.21
   0  -8  -6  303.33   10.02
   0   8   6  308.49   10.65
   0  -8  -7  336.29   10.93
   0   8   7  343.39   11.59
   0  -8  -8   19.72    3.34
   0   8   8   20.04    4.63
   0   9 -13  119.38    6.98
   0   9 -13  116.07    6.07
   0   9 -12   20.52    3.88
   0   9 -12   12.18    4.33
   0   9 -11   54.62    4.19
   0   9 -11   46.06    4.43
   0   9 -10  189.82    6.93
   0   9 -10  182.68    7.17
   0   9  -9  104.39    5.20
   0   9  -9  113.96    4.92
   0   9  -8  103.33    4.50
   0   9  -8  105.33    4.90
   0  -9   7   16.80    3.03
   0   9  -7   17.03    2.86
   0  -9   6  159.17    5.88
   0   9  -6  152.45    5.77
   0  -9   5  106.91    4.52
   0   9  -5   98.17    4.49
   0  -9   4   12.08    2.68
   0   9  -4   11.54    2.87
   0  -9   3    3.21    2.61
   0   9  -3    5.52    2.68
   0  -9   2   84.41    3.91
   0   9  -2   88.58    4.19
   0  -9   1    0.81    2.65
   0   9  -1    6.67    2.78
   0  -9   0   -0.47    2.51
   0   9   0    1.28    2.88
   0  -9  -1   18.99    2.99
   0   9   1   17.00    3.27
   0  -9  -2    7.47    2.97
   0   9   2    3.79    3.34
   0  -9  -3  103.76    4.68
   0   9   3  112.19    5.50
   0  -9  -4  213.87    7.47
   0   9   4  197.58    7.65
   0  -9  -5   12.92    3.26
   0   9   5   15.29    4.12
   0  -9  -6   79.25    4.26
   0   9   6   77.39    5.33
   0  10 -12  280.70    9.79
   0  10 -12  295.99   10.63
   0  10 -11  596.91   18.72
   0  10 -11  561.97   17.93
   0  10 -10 1364.46   41.55
   0  10 -10 1441.85   43.99
   0  10  -9 1331.05   40.65
   0  10  -9 1367.32   41.65
   0  10  -8 1202.62   36.83
   0  10  -8 1207.73   36.80
   0 -10   7 1629.24   49.33
   0  10  -7 1539.27   46.72
   0 -10   6 2142.63   64.74
   0  10  -6 2052.22   62.06
   0 -10   5 5008.88  150.67
   0  10  -5 4461.35  134.28
   0 -10   4 1280.38   38.97
   0  10  -4 1204.74   36.74
   0 -10   3  672.19   20.83
   0  10  -3  644.84   20.02
   0 -10   2  562.19   17.64
   0  10  -2  554.09   17.33
   0 -10   1  639.55   19.86
   0  10  -1  640.23   19.89
   0 -10   0  993.87   30.46
   0  10   0  957.91   29.38
   0 -10  -1  229.57    8.03
   0  10   1  222.23    7.83
   0 -10  -2  296.74    9.81
   0  10   2  285.50    9.91
   0 -10  -3  213.88    7.52
   0  10   3  220.85    8.28
   0 -10  -4  674.92   20.89
   0  10   4  663.52   20.94
   0 -10  -5  391.87   12.55
   0  10   5  427.68   14.08
   0  11 -10   10.65    4.16
   0  11 -10    7.01    4.13
   0  11  -9   -0.52    3.97
   0  11  -9   -5.83    3.66
   0  11  -8   59.76    4.23
   0 -11   7   10.59    2.94
   0  11  -7    7.02    3.33
   0 -11   6    7.21    2.98
   0  11  -6   11.42    3.22
   0 -11   5   45.23    3.48
   0  11  -5   46.85    3.48
   0 -11   4   58.31    3.55
   0  11  -4   46.30    3.55
   0 -11   3   -0.55    3.00
   0  11  -3    3.99    3.17
   0 -11   2   27.33    3.28
   0  11  -2   19.27    3.08
   0 -11   1    4.79    2.98
   0  11  -1    8.58    3.22
   0 -11   0   -0.51    2.95
   0  11   0    2.00    3.09
   0 -11  -1   37.81    3.38
   0  11   1   32.99    3.44
   0 -11  -2   -4.15    3.15
   0  11   2    3.84    3.87
   0  12  -9    5.19    4.70
   0 -12   8  245.17    8.52
   0  12  -8  218.34    7.95
   0 -12   7  244.56    8.28
   0  12  -7  250.58    8.87
   0 -12   6  312.32   10.44
   0  12  -6  348.13   11.44
   0 -12   5  429.53   13.74
   0  12  -5  437.13   13.95
   0 -12   4  581.92   18.16
   0  12  -4  558.11   17.49
   0 -12   3  135.59    5.35
   0  12  -3  125.17    5.32
   0 -12   2  647.94   20.12
   0  12  -2  642.75   19.99
   0 -12   1  515.22   16.15
   0  12  -1  550.57   17.23
   0 -12   0  339.98   11.06
   0  12   0  333.97   11.06
  -1  12   0  650.25   20.23
   1 -12   0  650.59   20.23
  -1  12  -1  590.42   18.51
   1 -12   1  606.69   18.86
  -1  12  -2  273.44    9.39
   1 -12   2  291.65    9.71
  -1  12  -3  996.86   30.55
   1 -12   3  998.93   30.55
  -1  12  -4 1097.93   33.55
   1 -12   4 1172.48   35.73
  -1  12  -5  849.41   26.15
   1 -12   5  819.01   25.19
  -1  12  -6  598.56   18.85
   1 -12   6  651.16   20.17
  -1  12  -7  767.59   23.79
   1 -12   7  730.47   22.58
  -1  12  -8   71.38    4.91
   1 -12   8   76.87    4.21
  -1  11   3   -0.35    3.99
   1 -11  -3   -5.13    3.16
  -1  11   2   14.50    3.38
   1 -11  -2   12.60    3.07
  -1  11   1    2.13    3.40
   1 -11  -1    2.33    3.23
  -1  11   0   -1.89    3.42
   1 -11   0    2.57    3.05
  -1  11  -1   13.03    3.38
   1 -11   1   17.16    3.17
  -1  11  -2    6.45    3.32
   1 -11   2   13.82    3.08
  -1  11  -3   31.36    3.34
   1 -11   3   31.02    3.14
  -1  11  -4   55.90    3.89
   1 -11   4   53.23    3.58
  -1  11  -5    8.51    3.38
   1 -11   5    1.40    2.77
  -1  11  -6   88.48    4.52
   1 -11   6   96.87    4.59
  -1  11  -7  157.03    6.28
   1 -11   7  156.58    5.98
  -1  11  -8   51.29    4.34
   1 -11   8   53.74    3.72
  -1  11  -9   72.32    4.57
  -1  11  -9   61.87    4.81
  -1  11 -10   40.21    4.25
  -1  11 -10   32.77    5.01
  -1  10   5  539.01   17.33
   1 -10  -5  544.21   17.05
  -1  10   4  254.57    9.20
   1 -10  -4  261.83    8.85
  -1  10   3  313.63   10.80
  -1  10   2  178.03    6.66
   1 -10  -2  199.96    7.16
  -1  10   1  380.57   12.40
   1 -10  -1  411.15   13.22
  -1  10   0   69.36    3.96
   1 -10   0   81.25    4.27
  -1  10  -1   31.58    3.42
   1 -10   1   34.79    3.24
  -1  10  -2   10.64    3.04
   1 -10   2    8.20    2.73
  -1  10  -3   50.61    3.84
   1 -10   3   45.68    3.21
  -1  10  -4 1224.53   37.33
   1 -10   4 1327.89   40.33
  -1  10  -5  318.95   10.52
   1 -10   5  331.57   10.72
  -1  10  -6  617.00   19.19
   1 -10   6  662.09   20.51
  -1  10  -7  670.91   20.88
   1 -10   7  690.97   21.36
  -1  10  -8 1144.62   34.99
  -1  10  -8 1073.62   33.08
  -1  10  -9 1811.35   55.05
  -1  10  -9 1739.67   52.78
  -1  10 -10  837.12   26.01
  -1  10 -10  830.22   25.69
  -1  10 -11  898.75   27.91
  -1  10 -11  874.46   27.01
  -1   9   7   89.75    5.46
   1  -9  -7   87.35    4.44
  -1   9   6   26.63    4.11
   1  -9  -6   25.94    3.17
  -1   9   5   94.29    5.34
   1  -9  -5   97.81    4.59
  -1   9   4  172.98    6.92
   1  -9  -4  190.69    6.84
   1  -9  -3   46.31    3.59
  -1   9   2   56.75    3.71
   1  -9  -2   59.24    3.71
  -1   9   1   44.35    3.46
   1  -9  -1   44.72    3.36
  -1   9   0    1.34    3.05
   1  -9   0    5.20    2.82
  -1   9  -1  139.64    5.55
   1  -9   1  151.99    5.79
  -1   9  -2   35.19    3.44
   1  -9   2   36.29    2.87
  -1   9  -3  282.16    9.43
   1  -9   3  300.46    9.87
  -1   9  -4  225.11    7.77
   1  -9   4  222.60    7.60
  -1   9  -5   24.77    3.18
   1  -9   5   32.12    2.88
  -1   9  -6   -0.44    2.66
   1  -9   6    1.15    2.69
  -1   9  -7   11.06    2.80
   1  -9   7    9.11    2.53
  -1   9  -8    5.69    3.32
  -1   9  -8    9.28    2.91
  -1   9  -9   79.24    4.39
  -1   9  -9   76.99    4.19
  -1   9 -10   13.94    3.46
  -1   9 -10   20.51    3.87
  -1   9 -11    3.17    4.24
  -1   9 -11    0.38    3.62
  -1   8   8  258.04    9.66
   1  -8  -8  269.51    9.22
  -1   8   7   37.61    4.54
   1  -8  -7   44.58    3.47
  -1   8   6  201.60    7.95
   1  -8  -6  206.31    7.41
  -1   8   5   54.24    4.41
   1  -8  -5   66.62    3.86
  -1   8   4  535.63   17.13
   1  -8  -4  541.02   17.09
  -1   8   3 1123.80   34.52
   1  -8  -3 1228.79   37.50
  -1   8   2 2537.34   76.64
   1  -8  -2 2669.00   80.52
  -1   8   1 2171.99   65.75
   1  -8  -1 2238.61   67.74
  -1   8   0 1758.26   53.36
   1  -8   0 1695.12   51.47
  -1   8  -1 1597.10   48.51
   1  -8   1 1721.53   52.27
  -1   8  -2 1678.37   50.90
   1  -8   2 1818.31   55.11
  -1   8  -3 6179.68  185.89
   1  -8   3 6547.88  196.90
  -1   8  -4  877.65   26.96
   1  -8   4  888.61   27.19
  -1   8  -5  930.57   28.48
   1  -8   5  934.24   28.58
  -1   8  -6 1089.30   33.23
   1  -8   6 1128.00   34.33
  -1   8  -7 1159.55   35.32
   1  -8   7 1243.59   37.84
  -1   8  -8 2520.52   76.12
  -1   8  -8 2647.31   80.05
  -1   8  -9  684.71   21.27
  -1   8  -9  675.24   20.82
  -1   8 -10  619.20   19.29
  -1   8 -10  637.23   19.73
  -1   8 -11  761.62   23.57
  -1   8 -11  779.09   23.95
  -1   8 -12  389.51   12.47
  -1   8 -12  403.32   13.01
  -1   8 -13   -3.20    3.31
  -1   8 -13   -1.50    3.58
  -1   7   9   17.24    4.26
   1  -7  -9   19.10    3.46
  -1   7   8    5.59    4.15
   1  -7  -8    5.21    3.29
  -1   7   7   36.52    4.50
   1  -7  -7   49.42    3.57
  -1   7   6   78.93    4.73
   1  -7  -6   89.85    4.42
  -1   7   5   45.06    4.06
   1  -7  -5   52.59    3.73
  -1   7   4    5.01    3.54
   1  -7  -4   11.12    3.04
  -1   7   3    7.12    3.00
   1  -7  -3    9.31    2.79
  -1   7   2   34.88    3.08
   1  -7  -2   38.16    3.08
  -1   7   1    3.11    2.78
   1  -7  -1    6.48    2.81
  -1   7   0   28.35    2.87
   1  -7   0   29.74    2.97
  -1   7  -1   21.50    2.64
   1  -7   1   30.78    2.80
  -1   7  -2    7.87    2.51
   1  -7   2    6.61    2.14
  -1   7  -3   46.63    2.97
   1  -7   3   44.99    2.77
  -1   7  -4   80.21    3.59
   1  -7   4   86.67    3.66
  -1   7  -5   20.43    2.41
   1  -7   5   23.87    2.21
  -1   7  -6   19.99    2.45
   1  -7   6   27.42    2.45
  -1   7  -7   70.99    3.29
  -1   7  -7   74.22    3.47
  -1   7  -8   26.89    2.71
  -1   7  -8   27.79    2.37
  -1   7  -9   71.32    3.36
  -1   7  -9   70.92    3.59
  -1   7 -10   31.58    2.91
  -1   7 -10   35.77    2.58
  -1   7 -11  163.10    5.76
  -1   7 -11  166.91    6.03
  -1   7 -12   63.21    3.37
  -1   7 -12   65.92    3.54
  -1   6  10  463.98   15.16
   1  -6 -10  532.49   16.78
  -1   6   9  782.23   24.41
   1  -6  -9  814.79   25.09
  -1   6   8 1601.87   48.84
   1  -6  -8 1803.77   54.68
  -1   6   7 1182.55   36.36
   1  -6  -7 1299.93   39.64
  -1   6   6    9.55    3.81
   1  -6  -6   10.92    3.11
  -1   6   5 2407.04   72.89
   1  -6  -5 2443.01   73.83
  -1   6   4 2470.64   74.75
   1  -6  -4 2553.80   77.13
  -1   6   3 3440.93  103.76
   1  -6  -3 3569.60  107.55
  -1   6   2 2908.71   87.72
   1  -6  -2 3235.85   97.58
  -1   6   1 1867.26   56.51
   1  -6  -1 1969.57   59.68
  -1   6   0 5784.56  173.93
   1  -6   0 6128.30  184.31
  -1   6  -1 6135.96  184.47
   1  -6   1 6705.07  201.54
  -1   6  -3 4101.40  123.46
   1  -6   3 4202.87  126.51
  -1   6  -4 2953.10   88.98
   1  -6   4 3093.76   93.25
  -1   6  -5  914.74   27.88
   1  -6   5  893.69   27.28
  -1   6  -6 1090.27   33.11
   1  -6   6 1147.66   34.93
  -1   6  -7 1098.49   33.41
  -1   6  -7 1121.34   34.02
  -1   6  -8  358.47   11.19
  -1   6  -8  350.48   11.05
  -1   6  -9  108.21    4.15
  -1   6  -9  113.33    4.09
  -1   6 -10  104.18    4.11
  -1   6 -10  103.58    3.91
  -1   6 -11  423.17   13.28
  -1   6 -11  410.94   12.84
  -1   6 -12  220.50    7.30
  -1   6 -12  230.74    7.57
  -1   5  11   -3.53    4.19
   1  -5 -11   -1.49    3.12
  -1   5  10    2.85    3.91
   1  -5 -10   -1.68    3.39
  -1   5   9    9.04    3.70
   1  -5  -9    7.07    3.23
  -1   5   8    3.47    3.67
   1  -5  -8    1.05    2.94
  -1   5   7    2.84    3.08
   1  -5  -7    3.65    3.21
  -1   5   6   26.63    3.23
   1  -5  -6   34.01    3.26
  -1   5   5    2.52    2.78
   1  -5  -5   -1.88    2.75
  -1   5   4    3.39    2.60
   1  -5  -4   -1.84    2.46
  -1   5   3   24.77    2.62
   1  -5  -3   22.06    2.42
  -1   5   2   -2.59    2.19
   1  -5  -2   -1.44    2.09
  -1   5   1  185.26    6.45
   1  -5  -1  196.24    6.75
  -1   5   0  169.24    5.86
   1  -5   0  195.18    6.67
  -1   5  -1  185.72    6.35
   1  -5   1  211.81    7.12
  -1   5  -2  213.82    7.03
   1  -5   2  223.22    7.32
  -1   5  -3    3.32    1.70
   1  -5   3    0.75    1.75
  -1   5  -4  636.01   19.48
   1  -5   4  664.40   20.40
  -1   5  -5   30.40    1.86
   1  -5   5   31.09    2.03
  -1   5  -6   43.91    2.23
  -1   5  -6   46.44    2.17
  -1   5  -7   61.00    2.47
  -1   5  -7   63.01    2.77
  -1   5  -8   44.78    2.39
  -1   5  -8   44.01    2.16
  -1   5  -9  358.73   11.25
  -1   5  -9  358.06   11.14
  -1   5 -10   47.89    2.59
  -1   5 -10   47.68    2.35
  -1   5 -11   13.82    1.87
  -1   5 -11   16.93    2.10
  -1   4  12   61.99    5.41
   1  -4 -12   78.91    4.44
  -1   4  11  587.40   18.77
   1  -4 -11  602.17   18.83
  -1   4  10  850.02   26.39
   1  -4 -10  928.32   28.49
  -1   4   9 2547.37   77.11
   1  -4  -9 3005.62   90.74
  -1   4   8 1971.18   59.83
   1  -4  -8 2085.35   63.11
  -1   4   7   37.00    3.39
   1  -4  -7   41.99    3.26
  -1   4   6 5067.59  152.55
   1  -4  -6 5011.43  150.84
  -1   4   5 3834.47  115.59
   1  -4  -5 3995.47  120.42
  -1   4   4 2759.94   83.30
   1  -4  -4 2991.85   90.27
  -1   4   3 1012.49   30.92
   1  -4  -3 1080.61   32.95
  -1   4   2  148.86    5.46
  -1   4   1  711.83   21.86
   1  -4  -1  765.01   23.48
  -1   4   0   96.33    3.76
   1  -4   0   91.54    3.69
  -1   4  -1  861.02   26.23
   1  -4   1  901.18   27.46
  -1   4  -2   99.69    3.69
   1  -4   2  104.07    3.83
  -1   4  -3  992.11   30.10
   1  -4   3 1006.71   30.56
  -1   4  -4   91.21    3.22
   1  -4   4   94.32    3.39
  -1   4  -5 1502.24   45.49
  -1   4  -5 1528.33   46.18
  -1   4  -6 3837.42  115.88
  -1   4  -6 3988.03  120.36
  -1   4  -7 1870.61   56.69
  -1   4  -7 1934.76   58.59
  -1   4  -8 1412.32   42.90
  -1   4  -8 1515.55   46.02
  -1   4  -9   65.62    2.67
  -1   4  -9   60.13    2.43
  -1   4 -10  517.87   16.03
  -1   4 -10  499.76   15.43
  -1   4 -11  459.88   14.27
  -1   4 -11  472.05   14.68
  -1   4 -12  286.91    9.14
  -1   4 -12  283.91    9.11
   1  -3 -13  105.20    5.30
  -1   3  12   49.15    4.86
   1  -3 -12   55.63    4.11
  -1   3  11   72.99    4.78
   1  -3 -11   89.14    4.41
  -1   3  10   17.32    3.58
   1  -3 -10   17.59    3.21
  -1   3   9  114.29    5.27
   1  -3  -9  113.02    4.86
  -1   3   8  315.03   10.45
   1  -3  -8  374.74   12.08
  -1   3   7   10.21    2.78
   1  -3  -7    5.58    2.71
  -1   3   6   58.59    3.38
   1  -3  -6   74.91    3.74
  -1   3   5  159.96    5.82
   1  -3  -5  178.17    6.31
  -1   3   4    1.63    2.12
   1  -3  -4    0.20    2.25
  -1   3   3   96.93    3.96
   1  -3  -3  104.20    4.15
   1  -3  -2   77.44    3.43
  -1   3   1   14.34    1.78
   1  -3  -1   16.31    1.88
  -1   3   0 1429.09   43.21
   1  -3   0 1505.58   45.54
  -1   3  -1 2201.01   66.32
   1  -3   1 2486.95   74.90
  -1   3  -2    0.90    1.23
   1  -3   2    0.93    1.23
  -1   3  -3  761.26   23.10
   1  -3   3  779.37   23.68
  -1   3  -4    4.54    1.11
  -1   3  -4    3.73    0.94
  -1   3  -5  144.81    4.62
  -1   3  -5  142.08    4.59
  -1   3  -6  317.77    9.80
  -1   3  -6  312.70    9.71
  -1   3  -7  171.51    5.52
  -1   3  -7  161.10    5.12
  -1   3  -8  953.14   29.04
  -1   3  -8  962.39   29.31
  -1   3  -9   29.77    1.86
  -1   3  -9   30.27    1.73
  -1   3 -10   36.73    2.14
  -1   3 -10   34.02    2.04
  -1   3 -11  352.85   11.08
  -1   3 -11  347.09   10.89
  -1   3 -12    8.02    2.12
  -1   3 -12   15.59    2.25
  -1   3 -13    9.92    2.55
  -1   3 -13    2.10    2.17
  -1   2  13  172.75    7.42
   1  -2 -13  195.55    7.31
  -1   2  12  645.91   20.33
   1  -2 -12  700.42   21.70
  -1   2  11 1014.65   31.23
   1  -2 -11 1098.50   33.58
  -1   2  10 1078.85   33.10
   1  -2 -10 1157.57   35.32
  -1   2   9 1168.79   35.73
   1  -2  -9 1224.85   37.34
  -1   2   8  117.21    4.84
   1  -2  -8  137.95    5.36
  -1   2   7 3083.28   93.05
   1  -2  -7 3343.23  100.89
  -1   2   6 3595.91  108.33
   1  -2  -6 4031.08  121.42
  -1   2   5 6577.60  197.78
  -1   2   4 5507.14  165.64
  -1   2   3 3837.76  115.46
   1  -2  -3 3954.16  118.95
  -1   2  -1  385.43   11.82
   1  -2   1  410.55   12.59
  -1   2  -2    9.41    0.93
   1  -2   2    8.54    0.97
  -1   2  -3   14.25    0.84
  -1   2  -3   12.54    0.88
  -1   2  -4  117.67    3.79
  -1   2  -4  118.63    3.76
  -1   2  -5 3617.90  109.90
  -1   2  -6  853.84   26.02
   1  -2   6  811.07   24.75
  -1   2  -7 2085.43   63.23
   1  -2   7 1986.29   60.24
  -1   2  -8 1477.38   44.83
   1  -2   8 1377.97   41.88
  -1   2  -9 2882.42   87.21
   1  -2   9 2662.90   80.66
  -1   2 -10 2565.89   77.67
   1  -2  10 2383.19   72.25
  -1   2 -11 2625.86   79.54
   1  -2  11 2451.03   74.33
  -1   2 -12 1692.72   51.45
   1  -2  12 1686.56   51.34
  -1   2 -13  430.54   13.56
   1  -1 -14   47.74    4.70
  -1   1  13   -0.59    4.56
   1  -1 -13    1.66    3.44
  -1   1  12    3.07    3.72
   1  -1 -12    6.66    3.55
  -1   1  11  239.28    8.31
   1  -1 -11  254.12    8.62
  -1   1  10  197.07    7.20
   1  -1 -10  219.13    7.61
  -1   1   9  128.27    5.25
   1  -1  -9  149.38    5.61
  -1   1   8  713.42   22.11
   1  -1  -8  819.34   25.17
  -1   1   7    3.14    2.23
   1  -1  -7    3.60    2.30
  -1   1   6  224.50    7.57
   1  -1  -6  255.19    8.51
  -1   1   5   57.44    2.93
   1  -1  -5   67.34    3.34
  -1   1   4    0.75    1.78
   1  -1  -4   -1.52    1.84
  -1   1   3  362.90   11.35
   1  -1  -3  410.64   12.84
  -1   1   2  412.40   12.75
   1  -1  -2  450.06   13.91
  -1   1   1    9.61    1.28
   1  -1  -1    9.36    1.42
  -1   1   0  103.22    3.38
   1  -1   0  105.60    3.47
  -1   1  -1   77.77    2.48
   1  -1   1   78.00    2.51
  -1   1  -3    2.49    0.52
   1  -1   3    1.58    0.55
  -1   1  -4  307.24    9.48
   1  -1   4  252.13    7.81
  -1   1  -5   51.43    2.02
   1  -1   5   43.13    1.85
  -1   1  -6   79.89    2.84
   1  -1   6   69.40    2.67
  -1   1  -7  278.38    8.70
   1  -1   7  265.64    8.41
  -1   1  -8   26.08    1.75
   1  -1   8   22.54    2.11
  -1   1  -9   71.50    3.00
   1  -1   9   62.54    3.06
  -1   1 -10  165.13    5.64
   1  -1  10  160.77    5.74
  -1   1 -11  127.66    4.71
   1  -1  11  123.17    4.81
  -1   1 -12   78.30    3.62
   1  -1  12   84.97    4.24
  -1   1 -13  120.43    4.84
   1  -1  13  138.16    5.74
  -1   0  14  279.87   10.14
   1   0 -14  276.46    9.54
  -1   0  13  849.87   26.37
   1   0 -13  995.81   30.60
  -1   0  12 1013.60   31.14
   1   0 -12 1165.20   35.62
  -1   0  11  731.09   22.67
   1   0 -11  837.50   25.76
  -1   0  10  531.25   16.73
   1   0 -10  617.06   19.16
  -1   0   9   31.98    3.05
   1   0  -9   44.90    3.15
  -1   0   8   32.45    2.83
   1   0  -8   30.84    2.61
  -1   0   7   58.40    3.08
   1   0  -7   75.71    3.50
  -1   0   6   14.72    2.12
   1   0  -6   18.06    2.31
  -1   0   5  655.05   20.13
   1   0  -5  742.56   22.82
  -1   0   4 2097.69   63.31
   1   0  -4 2250.16   67.90
  -1   0   2  989.68   29.94
   1   0  -2 1090.67   33.00
  -1   0  -1  801.78   24.25
  -1   0  -5 3250.43   97.94
   1   0   5 3091.31   93.23
  -1   0  -6 1567.86   47.42
   1   0   6 1486.42   45.00
  -1   0  -7 3302.93   99.61
   1   0   7 2956.19   89.25
  -1   0  -8 1288.37   39.05
   1   0   8 1205.90   36.66
  -1   0  -9  566.65   17.45
   1   0   9  512.60   15.98
  -1   0 -10 1785.36   54.04
   1   0  10 1644.69   49.91
  -1   0 -11  899.12   27.48
   1   0  11  831.20   25.57
  -1   0 -12  270.70    8.95
   1   0  12  277.08    9.40
  -1   0 -13  317.70   10.48
   1   0  13  345.74   11.62
  -1  -1  14   45.79    4.71
   1   1 -14   35.93    3.74
  -1  -1  13   81.59    4.55
   1   1 -13  101.79    5.00
  -1  -1  12    1.73    3.32
   1   1 -12    3.25    3.09
  -1  -1  11  326.07   10.72
   1   1 -11  372.58   11.96
  -1  -1  10  560.13   17.50
   1   1 -10  621.44   19.26
  -1  -1   9  126.95    5.02
   1   1  -9  145.25    5.39
  -1  -1   8  151.86    5.55
   1   1  -8  172.07    6.14
  -1  -1   7  335.92   10.71
   1   1  -7  375.46   11.93
  -1  -1   6    1.79    1.82
   1   1  -6   -0.58    1.95
  -1  -1   5    7.48    1.75
   1   1  -5    9.53    1.84
  -1  -1   4  229.20    7.39
   1   1  -4  235.84    7.62
  -1  -1   3  176.61    5.80
   1   1  -3  197.01    6.44
  -1  -1   2   45.59    2.10
   1   1  -2   42.85    2.06
   1   1  -1  223.03    6.95
   1   1  -1  226.34    7.14
  -1  -1   0  507.79   15.47
   1   1   0  488.18   14.86
  -1  -1  -1  105.12    3.61
   1   1   1  100.99    3.41
  -1  -1  -2   14.29    1.38
   1   1   2   15.22    1.29
  -1  -1  -3   90.71    3.27
   1   1   3   90.83    3.27
  -1  -1  -4   37.27    2.08
   1   1   4   32.82    1.98
  -1  -1  -5   20.74    1.86
   1   1   5   20.87    1.96
  -1  -1  -6    3.54    1.71
   1   1   6    1.81    1.94
  -1  -1  -7    2.18    1.95
   1   1   7   -0.33    2.01
  -1  -1  -8   31.96    2.46
   1   1   8   27.41    2.76
  -1  -1  -9   60.74    3.18
   1   1   9   56.99    3.34
  -1  -1 -10    4.97    2.57
   1   1  10    9.05    3.00
  -1  -1 -11    0.27    2.73
   1   1  11   -1.67    3.31
  -1  -1 -12   42.21    3.65
   1   1  12   41.90    4.07
  -1  -1 -13   26.90    4.15
   1   1  13   27.45    4.88
  -1  -2  14  105.05    5.38
   1   2 -14  105.15    5.21
  -1  -2  13  221.32    7.93
   1   2 -13  228.49    8.06
  -1  -2  12  726.05   22.51
   1   2 -12  774.46   23.93
  -1  -2  11  940.50   28.86
   1   2 -11  991.51   30.33
  -1  -2  10  170.61    6.22
   1   2 -10  179.56    6.35
  -1  -2   9 4402.82  132.68
   1   2  -9 4753.21  143.22
  -1  -2   8 5213.16  156.88
   1   2  -8 5899.71  177.58
  -1  -2   7 9318.31  280.08
   1   2  -7 9945.64  298.96
   1   2  -6 7249.85  218.04
  -1  -2   5 5907.49  177.64
  -1  -2   1 2011.32   60.63
  -1  -2   0 1756.91   53.01
   1   2   0 1601.93   48.33
  -1  -2  -4 2138.06   64.57
   1   2   4 2053.40   62.00
  -1  -2  -5 1865.27   56.41
   1   2   5 1818.16   55.00
  -1  -2  -6 1810.95   54.82
   1   2   6 1777.71   53.86
  -1  -2  -7  996.11   30.36
   1   2   7  942.13   28.81
  -1  -2  -8  118.45    4.60
   1   2   8  112.75    4.60
  -1  -2  -9  860.62   26.36
   1   2   9  786.97   24.24
  -1  -2 -10  131.06    5.16
   1   2  10  151.45    6.04
  -1  -2 -11    6.21    3.12
   1   2  11    4.53    3.63
  -1  -2 -12   66.16    4.37
   1   2  12   71.07    5.09
  -1  -3  14    1.90    3.59
   1   3 -14    2.42    3.52
  -1  -3  13    3.11    3.32
   1   3 -13    5.71    2.97
  -1  -3  12    9.37    3.11
   1   3 -12    7.51    3.01
  -1  -3  11   41.07    3.16
   1   3 -11   45.59    3.22
  -1  -3  10    7.29    2.70
   1   3 -10    6.92    2.36
  -1  -3   9   70.86    3.44
   1   3  -9   75.10    3.60
  -1  -3   8   61.83    3.15
   1   3  -8   68.93    3.45
  -1  -3   7  139.29    5.04
   1   3  -7  134.02    5.04
   1   3  -6  292.96    9.51
   1   3  -5  380.05   11.88
   1   3  -5  382.00   12.10
   1   3  -4   51.22    2.72
   1   3  -4   49.05    2.30
  -1  -3   3  632.44   19.39
   1   3  -3  625.66   19.16
  -1  -3   2 2687.41   80.98
   1   3  -2 2618.63   78.85
   1   3  -1   20.83    1.78
  -1  -3   0  624.00   19.16
   1   3   0  578.76   17.78
  -1  -3  -1   14.82    1.91
   1   3   1   11.72    1.74
  -1  -3  -2   46.80    2.57
   1   3   2   47.83    2.57
  -1  -3  -3  215.58    7.20
   1   3   3  216.78    7.20
  -1  -3  -4   30.64    2.39
   1   3   4   31.38    2.42
  -1  -3  -5  455.47   14.30
   1   3   5  405.19   12.79
  -1  -3  -6    3.63    2.21
   1   3   6    5.72    2.45
  -1  -3  -7    1.09    2.33
   1   3   7    2.03    2.63
  -1  -3  -8   96.28    4.23
   1   3   8   85.55    4.23
  -1  -3  -9   21.30    3.01
   1   3   9   24.51    3.35
  -1  -3 -10    7.75    3.11
   1   3  10   12.25    3.27
  -1  -3 -11   27.58    3.76
   1   3  11   24.86    4.21
  -1  -3 -12    5.02    3.69
   1   3  12   13.00    5.13
   1   4 -15  438.37   14.41
   1   4 -15  460.70   15.10
   1   4 -14  456.47   14.59
   1   4 -14  450.26   14.45
   1   4 -13  999.96   30.68
   1   4 -13 1014.31   31.02
   1   4 -12  296.95    9.88
   1   4 -12  283.64    9.35
   1   4 -11  229.86    7.86
   1   4 -11  223.24    7.52
   1   4 -10 1127.02   34.30
   1   4 -10 1133.35   34.56
   1   4  -9 1337.63   40.70
   1   4  -9 1301.86   39.54
   1   4  -8 1447.31   43.83
   1   4  -8 1413.72   43.01
   1   4  -7 1479.37   44.93
   1   4  -7 1428.24   43.29
   1   4  -6  996.92   30.33
   1   4  -6  994.64   30.39
   1   4  -5 5876.97  176.79
  -1  -4   2 3557.75  107.18
   1   4  -2 3629.03  109.20
  -1  -4   1 3149.00   94.87
   1   4  -1 2861.52   86.22
  -1  -4   0  344.26   10.90
   1   4   0  325.11   10.35
  -1  -4  -1 1086.80   33.13
   1   4   1 1044.53   31.80
  -1  -4  -2 2791.28   84.21
   1   4   2 2777.25   83.71
  -1  -4  -3  636.07   19.66
   1   4   3  665.51   20.55
  -1  -4  -4 1202.93   36.68
   1   4   4 1103.66   33.66
  -1  -4  -5  159.76    5.81
   1   4   5  156.39    5.84
  -1  -4  -6 1734.18   52.53
   1   4   6 1641.76   49.81
  -1  -4  -7 2157.89   65.25
   1   4   7 2038.70   61.74
  -1  -4  -8 1924.21   58.25
   1   4   8 1784.16   54.13
  -1  -4  -9 1368.81   41.63
   1   4   9 1221.75   37.38
  -1  -4 -10  348.84   11.45
   1   4  10  339.42   11.55
  -1  -4 -11  687.27   21.29
   1   4  11  658.09   20.90
   1   5 -14   53.69    4.42
   1   5 -14   55.20    4.14
   1   5 -13   41.46    3.52
   1   5 -13   34.80    3.73
   1   5 -12   78.99    3.90
   1   5 -12   81.91    4.41
   1   5 -11   81.87    3.80
   1   5 -11   72.41    4.01
   1   5 -10   13.16    2.37
   1   5 -10   14.83    2.78
   1   5  -9    0.23    2.32
   1   5  -9   -0.23    2.72
   1   5  -8    1.00    1.98
   1   5  -8    2.61    2.54
   1   5  -7   22.82    2.14
   1   5  -7   24.82    2.76
   1   5  -6  179.31    6.06
   1   5  -6  185.80    6.52
   1   5  -5   91.04    3.59
  -1  -5   4  159.15    5.58
   1   5  -4  167.98    5.77
  -1  -5   3 1135.08   34.61
   1   5  -3 1076.80   32.76
  -1  -5   2  147.81    5.37
   1   5  -2  142.35    5.04
  -1  -5   1  668.64   20.65
   1   5  -1  689.82   21.20
  -1  -5   0   86.56    3.65
   1   5   0   92.30    3.81
  -1  -5  -1   20.69    2.42
   1   5   1   18.08    2.42
  -1  -5  -2  372.15   11.90
   1   5   2  376.41   12.00
  -1  -5  -3   -0.07    2.41
   1   5   3   -2.77    2.47
  -1  -5  -4  498.76   15.65
   1   5   4  524.56   16.47
  -1  -5  -5  399.13   12.71
   1   5   5  404.78   12.97
  -1  -5  -6   71.00    3.78
   1   5   6   73.65    4.09
  -1  -5  -7  178.42    6.54
   1   5   7  185.30    6.95
  -1  -5  -8    1.70    2.69
   1   5   8    1.53    3.57
  -1  -5  -9   36.33    3.33
   1   5   9   34.85    4.19
  -1  -5 -10    6.31    3.53
   1   5  10   10.98    4.58
   1   6 -14  967.37   29.70
   1   6 -14 1027.27   31.58
   1   6 -13 1283.24   39.07
   1   6 -13 1295.25   39.55
   1   6 -12  476.51   15.00
   1   6 -12  482.30   15.41
   1   6 -11 2196.73   66.43
   1   6 -11 2207.87   66.86
   1   6 -10 2591.24   78.25
   1   6 -10 2509.77   75.91
   1   6  -9 2072.32   62.65
   1   6  -9 2050.99   62.12
   1   6  -8 1283.90   39.00
   1   6  -8 1261.02   38.46
   1   6  -7  302.22    9.74
   1   6  -7  301.65    9.94
   1   6  -6 1078.99   32.88
   1   6  -6 1116.50   34.16
  -1  -6   5 1171.42   35.71
   1   6  -5 1145.82   34.89
  -1  -6   4 3561.68  107.37
   1   6  -4 3450.28  103.90
  -1  -6   3  637.73   19.77
   1   6  -3  607.61   18.83
  -1  -6   2 1196.88   36.51
   1   6  -2 1246.97   37.94
  -1  -6   1  498.67   15.63
   1   6  -1  491.79   15.33
  -1  -6   0 1415.82   42.99
   1   6   0 1265.51   38.47
  -1  -6  -1 2546.28   76.90
   1   6   1 2459.43   74.29
  -1  -6  -2  467.79   14.79
   1   6   2  470.77   14.92
  -1  -6  -3  320.48   10.45
   1   6   3  328.47   10.74
  -1  -6  -4  243.47    8.30
   1   6   4  247.87    8.56
  -1  -6  -5  192.05    6.94
   1   6   5  205.96    7.41
  -1  -6  -6  250.08    8.57
   1   6   6  265.74    9.11
  -1  -6  -7  148.72    5.85
   1   6   7  159.77    6.53
  -1  -6  -8  215.96    7.55
   1   6   8  212.18    7.95
  -1  -6  -9   23.08    3.32
   1   6   9   30.90    4.36
   1   7 -14   93.73    4.83
   1   7 -14   99.29    5.56
   1   7 -13  230.71    8.40
   1   7 -13  238.41    8.26
   1   7 -12   -0.79    2.90
   1   7 -12    8.57    3.86
   1   7 -11   93.08    4.41
   1   7 -11   84.98    4.67
   1   7 -10  152.26    5.56
   1   7 -10  152.69    6.16
   1   7  -9  159.34    5.83
   1   7  -9  149.16    5.96
   1   7  -8   72.76    3.56
   1   7  -8   65.26    3.76
   1   7  -7   50.69    3.02
   1   7  -7   53.58    3.59
  -1  -7   6    7.52    2.35
   1   7  -6    8.50    2.25
  -1  -7   5   40.65    2.90
   1   7  -5   47.34    2.98
  -1  -7   4  207.09    7.22
   1   7  -4  184.08    6.43
  -1  -7   3   30.94    2.67
   1   7  -3   23.56    2.57
  -1  -7   2    8.54    2.54
   1   7  -2   10.25    2.28
  -1  -7   1   65.17    3.44
   1   7  -1   61.71    3.29
  -1  -7   0    8.20    2.52
   1   7   0    8.13    2.78
  -1  -7  -1   97.80    4.21
   1   7   1  103.77    4.47
  -1  -7  -2   20.83    2.80
   1   7   2   18.20    2.80
  -1  -7  -3   90.15    4.24
   1   7   3   76.85    4.31
  -1  -7  -4    5.10    2.88
   1   7   4   -0.03    3.36
  -1  -7  -5   -2.47    3.05
   1   7   5   -0.47    3.35
  -1  -7  -6   13.79    2.92
   1   7   6   11.44    3.44
  -1  -7  -7   12.87    3.29
   1   7   7   14.38    3.95
  -1  -7  -8    4.91    3.08
   1   7   8    0.38    3.91
   1   8 -13  177.81    7.13
   1   8 -13  197.18    7.27
   1   8 -12  407.05   13.11
   1   8 -12  374.44   12.42
   1   8 -11  504.72   15.95
   1   8 -11  521.42   16.70
   1   8 -10 1334.08   40.57
   1   8 -10 1332.05   40.64
   1   8  -9  405.59   12.90
   1   8  -9  404.59   13.21
   1   8  -8  223.82    7.65
   1   8  -8  244.04    8.51
   1   8  -7  106.02    4.81
   1   8  -7  110.03    4.58
  -1  -8   6  212.43    7.36
   1   8  -6  198.07    6.87
  -1  -8   5 2108.15   63.81
   1   8  -5 2185.62   66.04
  -1  -8   4   53.48    3.55
   1   8  -4   49.63    3.36
  -1  -8   3   22.48    2.82
   1   8  -3   18.86    2.56
  -1  -8   2  324.98   10.70
   1   8  -2  363.45   11.66
  -1  -8   1 1212.64   37.03
   1   8  -1 1213.63   36.96
  -1  -8   0 2994.88   90.42
  -1  -8  -1 2192.06   66.39
   1   8   1 2216.47   67.13
  -1  -8  -2 2351.46   71.12
   1   8   2 2432.05   73.64
  -1  -8  -3 3186.95   96.16
   1   8   3 3119.82   94.24
  -1  -8  -4 3515.03  105.92
   1   8   4 3447.17  103.99
  -1  -8  -5 2025.38   61.29
   1   8   5 1881.61   57.14
  -1  -8  -6 2670.79   80.59
   1   8   6 2746.46   83.05
  -1  -8  -7 1166.34   35.48
   1   8   7 1127.15   34.58
   1   9 -13   37.16    4.74
   1   9 -13   36.61    3.96
   1   9 -12   -0.48    3.39
   1   9 -12    1.80    4.11
   1   9 -11   88.63    5.18
   1   9 -11   85.34    4.35
   1   9 -10    6.79    3.27
   1   9 -10    5.73    4.03
   1   9  -9   42.57    3.22
   1   9  -9   36.47    3.80
   1   9  -8   -4.60    2.63
   1   9  -8    1.82    3.41
  -1  -9   7   28.22    2.73
   1   9  -7   27.23    3.06
  -1  -9   6  318.14   10.41
   1   9  -6  324.25   10.68
  -1  -9   5   55.31    3.35
   1   9  -5   62.99    3.73
  -1  -9   4   20.39    2.98
   1   9  -4   15.64    2.65
  -1  -9   3   54.66    3.21
   1   9  -3   49.17    3.34
  -1  -9   2    3.18    2.68
   1   9  -2    4.26    2.85
  -1  -9   1   18.00    2.88
   1   9  -1   14.20    2.82
   1   9   0   12.08    3.50
  -1  -9  -1   24.72    3.11
   1   9   1   20.77    3.58
  -1  -9  -2   33.75    3.12
   1   9   2   35.35    3.62
  -1  -9  -3  100.20    4.46
   1   9   3  108.48    5.36
  -1  -9  -4    8.75    3.02
   1   9   4   12.17    3.81
  -1  -9  -5   40.15    3.45
   1   9   5   35.56    4.49
  -1  -9  -6   46.52    3.58
   1   9   6   42.79    4.80
   1  10 -12   28.53    4.28
   1  10 -12   25.74    4.77
   1  10 -11  265.70    9.20
   1  10 -11  244.30    8.91
   1  10 -10   85.46    4.98
   1  10 -10   99.18    4.98
   1  10  -9  112.62    4.76
   1  10  -9  111.32    5.33
   1  10  -8  403.34   12.91
   1  10  -8  420.72   13.66
  -1 -10   7 1127.81   34.37
   1  10  -7 1111.17   33.93
  -1 -10   6 3605.17  108.63
   1  10  -6 3805.09  114.63
  -1 -10   5  675.35   21.01
   1  10  -5  678.74   21.04
  -1 -10   4 1203.17   36.76
   1  10  -4 1060.12   32.40
  -1 -10   3  987.35   30.24
   1  10  -3 1040.45   31.83
  -1 -10   2 1126.61   34.37
   1  10  -2 1161.49   35.42
  -1 -10   1 1362.26   41.46
   1  10  -1 1263.87   38.44
  -1 -10   0  141.23    5.58
   1  10   0  137.76    5.61
  -1 -10  -1  134.31    5.40
   1  10   1  126.76    5.53
  -1 -10  -2  161.95    6.14
   1  10   2  157.97    6.52
  -1 -10  -3  193.47    7.03
   1  10   3  202.33    7.73
  -1 -10  -4   72.77    4.16
   1  10   4   72.08    4.97
   1  11 -11   18.37    4.01
   1  11 -11   20.22    4.67
   1  11 -10   25.24    4.02
   1  11 -10   12.14    4.16
   1  11  -9   33.13    3.59
   1  11  -9   32.93    4.17
   1  11  -8   15.44    3.19
   1  11  -8   12.07    3.78
  -1 -11   7   18.14    3.12
   1  11  -7   21.36    3.47
  -1 -11   6   84.26    4.31
   1  11  -6   76.29    4.18
  -1 -11   5   11.55    3.14
   1  11  -5   10.97    2.84
  -1 -11   4   13.22    2.98
   1  11  -4   12.79    2.90
  -1 -11   3   27.25    3.18
   1  11  -3   32.52    3.41
  -1 -11   2    6.03    2.98
   1  11  -2    5.38    3.18
  -1 -11   1    6.49    3.02
   1  11  -1    2.61    2.85
  -1 -11   0    5.89    3.17
   1  11   0    5.89    3.03
  -1 -11  -1   -2.10    2.66
   1  11   1    1.38    3.84
  -1 -11  -2   -0.24    3.02
   1  11   2    6.18    4.30
   1  12  -9  478.84   15.72
   1  12  -8  455.32   14.56
   1  12  -8  435.16   14.12
  -1 -12   7  649.71   20.18
   1  12  -7  590.76   18.38
  -1 -12   6  431.60   13.81
   1  12  -6  449.59   14.36
  -1 -12   5  794.67   24.49
   1  12  -5  679.87   21.06
  -1 -12   4  505.22   15.98
   1  12  -4  493.46   15.59
  -1 -12   3 1292.68   39.32
   1  12  -3 1298.57   39.46
  -1 -12   2 1567.00   47.52
   1  12  -2 1430.41   43.41
  -1 -12   1  980.47   30.03
   1  12  -1  937.02   28.64
  -2  12   1  152.78    6.13
   2 -12  -1  152.95    6.13
  -2  12   0  138.67    5.86
   2 -12   0  168.34    6.42
  -2  12  -1   13.69    3.46
   2 -12   1   13.48    3.32
  -2  12  -2  442.73   14.22
   2 -12   2  453.80   14.38
  -2  12  -3  537.23   16.94
   2 -12   3  552.10   17.25
  -2  12  -4  387.67   12.83
   2 -12   4  390.78   12.49
  -2  12  -5  550.87   17.59
   2 -12   5  561.25   17.49
  -2  12  -6  835.09   25.88
   2 -12   6  818.78   25.15
  -2  12  -7  126.47    6.23
   2 -12   7  116.56    5.22
  -2  11   3    5.10    3.64
   2 -11  -3    5.23    3.32
  -2  11   2    1.80    3.62
   2 -11  -2    2.76    3.14
  -2  11   1   -2.75    3.64
   2 -11  -1   -0.72    3.16
  -2  11   0   29.01    3.66
   2 -11   0   31.31    3.33
  -2  11  -1   -2.26    3.46
   2 -11   1    7.25    2.94
  -2  11  -2   21.05    3.80
   2 -11   2   29.57    3.17
  -2  11  -3   -0.34    3.52
   2 -11   3    1.40    2.84
  -2  11  -4   -3.32    3.59
   2 -11   4    1.06    2.77
  -2  11  -5   33.22    4.21
   2 -11   5   28.18    2.98
  -2  11  -6   51.12    4.19
   2 -11   6   45.69    3.29
  -2  11  -7   -1.76    3.99
   2 -11   7   -2.03    3.06
  -2  11  -8   21.88    4.33
   2 -11   8   16.84    3.39
  -2  11  -9    5.66    4.44
  -2  11  -9   -3.13    4.31
  -2  10   5  764.46   24.06
   2 -10  -5  864.52   26.55
  -2  10   4 1530.31   46.47
   2 -10  -4 1674.19   50.77
  -2  10   3 1216.49   37.09
   2 -10  -3 1230.54   37.50
  -2  10   2 1922.54   58.25
   2 -10  -2 1996.89   60.40
  -2  10   1  944.32   29.03
   2 -10  -1  902.51   27.70
  -2  10   0  334.20   11.02
   2 -10   0  319.82   10.61
  -2  10  -1  239.11    8.36
   2 -10   1  235.45    8.06
  -2  10  -2  233.14    8.22
   2 -10   2  226.92    7.74
  -2  10  -3  603.51   18.95
   2 -10   3  635.66   19.72
  -2  10  -4   50.83    3.86
   2 -10   4   48.22    3.14
  -2  10  -5  167.09    6.41
   2 -10   5  178.89    6.41
  -2  10  -6   33.77    3.47
   2 -10   6   36.63    3.13
  -2  10  -7  300.44   10.20
   2 -10   7  321.67   10.47
  -2  10  -8  504.82   16.14
  -2  10  -8  504.49   16.04
  -2  10  -9  262.78    9.23
  -2  10  -9  280.96    9.71
  -2  10 -10  412.39   13.55
  -2  10 -10  375.32   12.38
  -2   9   7   54.13    4.68
   2  -9  -7   52.15    3.86
  -2   9   6   61.83    4.72
   2  -9  -6   69.17    4.07
  -2   9   5   69.07    4.86
   2  -9  -5   62.95    4.07
  -2   9   4    3.20    3.47
   2  -9  -4    1.30    2.99
  -2   9   3   54.37    4.17
   2  -9  -3   54.55    3.56
  -2   9   2   -0.58    3.04
   2  -9  -2   -1.65    3.04
  -2   9   1    3.87    3.23
   2  -9  -1    6.23    2.93
  -2   9   0  170.98    6.45
   2  -9   0  172.79    6.38
  -2   9  -1    5.46    3.18
   2  -9   1    2.71    2.65
  -2   9  -2   92.69    4.56
   2  -9   2   92.51    4.25
  -2   9  -3  224.71    7.88
   2  -9   3  226.69    7.71
  -2   9  -4  188.74    6.88
   2  -9   4  199.85    6.95
  -2   9  -5   15.63    2.89
   2  -9   5   15.67    2.56
  -2   9  -6   25.86    3.10
   2  -9   6   35.78    3.00
  -2   9  -7   43.53    3.48
   2  -9   7   42.21    3.01
  -2   9  -8  155.89    6.06
  -2   9  -8  146.43    5.61
  -2   9 -10   18.58    3.54
  -2   9 -10    9.77    3.24
  -2   9 -11   -0.90    3.29
  -2   9 -11   -0.56    3.15
  -2   8   8   83.78    5.39
   2  -8  -8  108.31    4.81
  -2   8   7  103.72    5.59
   2  -8  -7  113.16    5.08
  -2   8   6   45.71    4.26
   2  -8  -6   54.84    3.68
  -2   8   5   97.32    5.28
   2  -8  -5  105.12    4.91
  -2   8   4  141.56    6.00
   2  -8  -4  154.56    6.17
  -2   8   3  858.80   26.47
   2  -8  -3  885.30   27.21
  -2   8   2  410.15   13.24
   2  -8  -2  428.53   13.71
  -2   8   1  422.36   13.57
   2  -8  -1  464.02   14.84
  -2   8   0  573.60   18.00
   2  -8   0  635.82   19.86
  -2   8  -1  944.91   29.02
   2  -8   1 1000.07   30.65
  -2   8  -2 3382.72  101.98
   2  -8   2 3528.92  106.40
  -2   8  -3  599.17   18.72
   2  -8   3  607.48   18.82
  -2   8  -4  641.68   19.88
   2  -8   4  679.30   20.94
  -2   8  -5  856.77   26.30
   2  -8   5  928.87   28.37
  -2   8  -6 1155.81   35.19
   2  -8   6 1244.54   37.84
  -2   8  -7 2260.07   68.31
   2  -8   7 2609.69   78.80
  -2   8  -8 1223.19   37.20
  -2   8  -8 1273.53   38.78
  -2   8  -9 1636.52   49.77
  -2   8  -9 1576.05   47.87
  -2   8 -10 1887.68   57.62
  -2   8 -10 1931.45   58.99
  -2   7  10   -2.90    5.02
   2  -7 -10    2.55    3.38
  -2   7   9    6.53    4.14
   2  -7  -9    4.90    3.35
  -2   7   8    1.65    4.21
   2  -7  -8    3.09    3.33
  -2   7   7    5.34    3.74
   2  -7  -7    4.39    3.16
  -2   7   6   90.75    5.41
   2  -7  -6  104.86    4.93
  -2   7   5   14.66    4.00
   2  -7  -5   16.69    3.02
  -2   7   3   97.17    4.63
   2  -7  -3  102.70    4.56
  -2   7   2   44.06    3.51
   2  -7  -2   31.45    3.15
  -2   7   1  279.77    9.36
   2  -7  -1  317.55   10.48
  -2   7   0   -0.46    2.64
   2  -7   0    0.26    2.47
  -2   7  -1  236.94    8.11
   2  -7   1  246.04    8.21
  -2   7  -2  405.42   12.93
   2  -7   2  401.80   12.66
  -2   7  -3   95.78    4.13
   2  -7   3  108.50    4.29
  -2   7  -4   55.50    3.07
   2  -7   4   63.38    3.04
  -2   7  -5   71.73    3.35
   2  -7   5   77.51    3.38
  -2   7  -6    2.46    2.03
   2  -7   6   -2.53    2.07
  -2   7  -7   54.78    2.97
  -2   7  -7   49.70    2.68
  -2   7  -8   38.13    2.45
  -2   7  -8   42.63    2.66
  -2   7  -9    6.76    2.10
  -2   7  -9    8.99    1.97
  -2   6  11  205.67    8.30
   2  -6 -11  236.46    8.44
  -2   6  10  513.31   16.60
   2  -6 -10  555.78   17.43
  -2   6   9  597.01   19.06
   2  -6  -9  703.76   21.93
  -2   6   8  479.86   15.61
   2  -6  -8  534.16   16.87
  -2   6   7    9.63    3.64
   2  -6  -7   13.74    3.20
  -2   6   6  880.43   27.38
   2  -6  -6  849.96   26.28
  -2   6   5  812.62   25.24
   2  -6  -5  774.67   24.00
  -2   6   4  953.92   29.55
   2  -6  -4  920.78   28.29
  -2   6   3  372.31   12.12
   2  -6  -3  396.73   12.77
  -2   6   2  134.56    5.36
   2  -6  -2  135.97    5.46
  -2   6   1 1892.88   57.37
   2  -6  -1 2012.73   61.00
  -2   6   0 2802.90   84.57
   2  -6   0 3275.73   98.79
  -2   6  -1 5332.33  160.37
   2  -6   1 6053.35  182.03
  -2   6  -2 3734.27  112.45
   2  -6   2 4255.56  128.15
  -2   6  -3 5439.07  163.60
   2  -6   3 5944.57  178.86
  -2   6  -4 2729.70   82.33
   2  -6   4 3048.75   91.96
  -2   6  -5 2395.53   72.34
   2  -6   5 2667.67   80.56
  -2   6  -6 3513.03  106.02
   2  -6   6 4152.06  125.39
  -2   6  -7  549.16   16.93
  -2   6  -7  508.58   15.63
  -2   6  -8  506.33   15.65
  -2   6  -8  527.07   16.32
  -2   5  11   14.37    4.01
   2  -5 -11   22.11    3.36
  -2   5  10   74.20    4.93
   2  -5 -10   84.61    4.55
  -2   5   9    5.94    3.70
   2  -5  -9   13.57    3.06
  -2   5   8   -0.54    3.67
   2  -5  -8    1.52    2.99
  -2   5   7  113.28    5.45
   2  -5  -7  114.38    4.95
  -2   5   6   16.32    3.19
   2  -5  -6   18.78    2.89
  -2   5   5    1.09    2.94
   2  -5  -5    0.07    2.65
  -2   5   4    6.51    2.70
   2  -5  -4    2.33    2.46
  -2   5   3    1.02    2.37
   2  -5  -3   -0.66    2.60
  -2   5   2    6.08    2.45
   2  -5  -2    6.70    2.49
  -2   5   1    5.09    2.29
   2  -5  -1    5.77    2.09
  -2   5   0   34.99    2.58
   2  -5   0   39.74    2.67
  -2   5  -1   38.24    2.58
   2  -5   1   39.71    2.44
  -2   5  -2   57.93    2.80
   2  -5   2   66.93    2.97
  -2   5  -3  212.24    6.92
   2  -5   3  230.74    7.52
  -2   5  -4   14.86    1.63
   2  -5   4   19.52    1.70
  -2   5  -5   50.09    2.17
   2  -5   5   55.58    2.37
  -2   5  -6   14.97    1.36
  -2   5  -6   16.59    1.49
  -2   5  -7  115.93    3.87
  -2   5  -7  112.25    3.71
  -2   4  12  259.00    9.28
   2  -4 -12  298.14   10.05
  -2   4  11  483.53   15.70
   2  -4 -11  510.96   16.18
  -2   4  10 1143.01   35.14
   2  -4 -10 1237.47   37.79
  -2   4   9 1129.77   34.74
   2  -4  -9 1249.38   38.14
  -2   4   8   43.84    3.85
   2  -4  -8   49.09    3.48
  -2   4   7 4823.31  145.30
   2  -4  -7 5491.00  165.26
  -2   4   6 5534.97  166.61
   2  -4  -6 5700.09  171.53
  -2   4   5 5372.66  161.67
   2  -4  -5 5855.70  176.23
  -2   4   4 4843.17  145.76
   2  -4  -4 5216.23  156.94
  -2   4   3 1310.84   39.83
   2  -4  -3 1367.60   41.61
  -2   4   2 7922.49  238.13
   2  -4  -2 8524.41  256.19
  -2   4   1 4495.69  135.33
  -2   4   0 1277.24   38.78
   2  -4   0 1451.21   44.01
  -2   4  -1 3064.95   92.32
   2  -4   1 3466.81  104.42
  -2   4  -2 3395.27  102.24
   2  -4   2 3736.43  112.51
  -2   4  -3  203.85    6.51
   2  -4   3  228.35    7.26
  -2   4  -4 2640.02   79.85
   2  -4   4 2914.14   88.18
  -2   4  -5 4849.70  148.15
  -2   4  -6 3361.08  126.39
  -2   3  13    4.80    4.49
   2  -3 -13    5.11    3.65
  -2   3  12    3.44    4.10
   2  -3 -12    1.58    3.44
  -2   3  11    1.09    3.51
   2  -3 -11    2.04    3.00
  -2   3  10    5.44    3.24
   2  -3 -10    2.53    3.07
  -2   3   9    0.63    3.05
   2  -3  -9    3.99    2.98
  -2   3   8    3.55    2.79
   2  -3  -8    8.75    2.76
  -2   3   7    0.90    2.75
   2  -3  -7    1.03    2.62
  -2   3   6    4.86    2.50
   2  -3  -6   11.56    2.89
  -2   3   5  118.28    4.81
   2  -3  -5  133.58    5.24
  -2   3   4    4.01    2.05
   2  -3  -4    3.88    2.35
  -2   3   3   51.34    2.93
   2  -3  -3   66.38    3.34
  -2   3   2   35.74    2.43
   2  -3  -2   39.02    2.78
  -2   3   1    2.27    1.81
   2  -3  -1    2.30    2.04
  -2   3   0   16.62    1.78
   2  -3   0   20.06    1.94
  -2   3  -1   25.95    1.78
   2  -3   1   28.51    1.88
  -2   3  -2  444.50   13.64
   2  -3   2  510.26   15.61
  -2   3  -3   74.21    2.57
   2  -3   3   81.97    2.79
  -2   2  13  456.91   14.96
   2  -2 -13  508.07   16.14
  -2   2  12  606.14   19.22
   2  -2 -12  680.03   21.17
  -2   2  11  538.41   17.22
   2  -2 -11  599.40   18.80
  -2   2  10  399.73   13.04
   2  -2 -10  446.42   14.28
  -2   2   9   28.04    3.47
   2  -2  -9   31.83    2.96
  -2   2   8 1309.38   39.98
   2  -2  -8 1499.04   45.57
  -2   2   7 1252.70   38.26
   2  -2  -7 1391.85   42.40
  -2   2   6 2198.36   66.56
   2  -2  -6 2515.12   75.98
  -2   2   5 2387.38   72.13
   2  -2  -5 2679.28   80.92
  -2   2   4  909.92   27.85
   2  -2  -4 1021.58   31.23
   2  -2   1 2683.83   80.86
  -2   2  -2  276.45    8.54
   2  -2   2  307.82    9.47
  -2   1  14   84.60    5.60
   2  -1 -14   97.67    5.14
  -2   1  13   86.46    5.19
   2  -1 -13   93.45    4.71
  -2   1  12   20.09    3.81
   2  -1 -12   32.21    3.64
  -2   1  11  196.17    7.35
   2  -1 -11  227.49    7.86
  -2   1  10  506.84   16.09
   2  -1 -10  572.41   17.97
  -2   1   9  293.19    9.87
   2  -1  -9  331.61   10.89
  -2   1   8   41.76    3.23
   2  -1  -8   45.85    3.26
  -2   1   7  385.30   12.40
   2  -1  -7  446.28   14.24
  -2   1   6   25.35    2.48
   2  -1  -6   31.23    2.80
  -2   1   5   34.70    2.60
   2  -1  -5   36.46    2.63
  -2   1   4  530.80   16.51
   2  -1  -4  592.98   18.40
  -2   1   2 2052.65   61.93
   2  -1  -2 2293.92   69.22
   2  -1  -1 2372.74   71.49
  -2   1   0    1.38    1.23
   2  -1   0    2.58    1.20
  -2   1  -1  107.69    3.58
   2  -1   1  117.40    3.87
   2  -1   2   13.74    0.97
   2  -1   2   14.44    0.81
  -2   1  -5    2.13    0.59
   2  -1   5    0.94    0.76
  -2   1  -6   77.08    2.60
   2  -1   6   80.62    2.79
  -2   1  -7  111.19    3.63
   2  -1   7  109.96    3.73
  -2   1  -8    4.12    1.23
   2  -1   8    6.35    1.50
  -2   1  -9   51.77    2.27
   2  -1   9   55.99    2.58
  -2   1 -10    1.63    1.66
   2  -1  10    5.47    1.96
  -2   1 -11   24.66    2.15
   2  -1  11   27.59    2.36
  -2   1 -12   -7.75    1.96
   2  -1  12   -0.80    2.28
  -2   0  14  974.78   30.19
   2   0 -14 1037.45   31.83
  -2   0  13 2056.74   62.43
   2   0 -13 2288.35   69.21
  -2   0  12 1807.71   54.90
   2   0 -12 2003.82   60.73
  -2   0  11 2626.57   79.39
   2   0 -11 2989.41   90.22
  -2   0  10 1734.50   52.67
   2   0 -10 1931.63   58.54
  -2   0   9 3619.47  109.21
   2   0  -9 4033.40  121.50
  -2   0   8 2602.03   78.67
   2   0  -8 2977.47   89.92
  -2   0   7 4522.11  136.22
   2   0  -7 5075.11  152.81
  -2   0   6  405.47   12.90
   2   0  -6  430.87   13.64
  -2   0   5   79.16    3.44
   2   0  -5   98.14    4.09
  -2   0   4  146.72    5.14
   2   0  -4  164.76    5.79
   2   0  -3 1207.71   36.70
   2   0  -1 2090.50   63.01
  -2   0   0 1020.65   30.91
   2   0   0 1038.70   31.45
   2   0   1 1719.82   51.86
   2   0   1 1707.89   51.56
  -2   0  -4 1123.58   34.05
   2   0   4 1122.61   34.05
  -2   0  -5 2256.53   68.21
   2   0   5 2164.65   65.49
  -2   0  -6 3012.50   90.97
   2   0   6 2938.86   88.87
  -2   0  -7 1369.02   41.49
   2   0   7 1292.93   39.27
  -2   0  -8  481.15   14.83
   2   0   8  473.82   14.70
  -2   0  -9 2431.05   73.56
   2   0   9 2381.68   72.15
  -2   0 -10  947.08   28.90
   2   0  10  963.68   29.48
  -2   0 -11  480.71   14.99
   2   0  11  520.74   16.32
  -2   0 -12  458.82   14.42
   2   0  12  596.42   18.70
  -2  -1  14    1.52    4.17
   2   1 -14    3.01    3.73
  -2  -1  13   12.50    3.86
   2   1 -13   10.66    3.35
  -2  -1  12  187.91    7.01
   2   1 -12  203.95    7.35
  -2  -1  11  207.20    7.45
   2   1 -11  230.29    7.96
  -2  -1  10  103.98    4.59
   2   1 -10  120.13    4.96
  -2  -1   9  137.24    5.32
   2   1  -9  150.67    5.69
  -2  -1   8  776.50   23.96
   2   1  -8  878.70   27.04
  -2  -1   7    5.78    2.26
   2   1  -7    4.58    2.39
  -2  -1   6  279.78    9.11
   2   1  -6  321.47   10.44
  -2  -1   5  338.22   10.80
   2   1  -5  356.05   11.41
  -2  -1   4  297.04    9.47
   2   1  -4  309.42    9.96
  -2  -1   3 4683.58  140.83
   2   1  -1  466.17   14.41
   2   1  -1  444.57   13.67
   2   1   0  139.78    4.80
   2   1   0  133.23    4.45
  -2  -1  -1   43.78    2.04
   2   1   1   39.00    1.84
  -2  -1  -2   43.13    1.97
   2   1   2   39.09    1.84
  -2  -1  -3  531.48   16.31
   2   1   3  532.77   16.31
  -2  -1  -4   19.24    1.67
   2   1   4   16.60    1.63
  -2  -1  -5   76.17    2.95
   2   1   5   75.84    3.14
  -2  -1  -6  139.34    4.75
   2   1   6  142.97    5.01
  -2  -1  -7   27.81    2.06
   2   1   7   29.26    2.45
  -2  -1  -8   92.16    3.64
   2   1   8   96.61    4.01
  -2  -1  -9   31.88    2.57
   2   1   9   33.24    2.89
  -2  -1 -10   23.27    2.62
   2   1  10   27.82    3.44
  -2  -1 -11   42.70    3.29
   2   1  11   47.51    3.95
  -2  -1 -12   27.57    3.71
   2   1  12   26.92    4.17
  -2  -2  15  136.95    6.76
   2   2 -15  144.65    6.37
  -2  -2  14  115.99    5.72
   2   2 -14  124.33    5.61
  -2  -2  13   50.08    4.03
   2   2 -13   58.84    4.03
  -2  -2  12   16.49    3.34
   2   2 -12   18.36    3.18
  -2  -2  11  390.16   12.67
   2   2 -11  426.70   13.70
  -2  -2  10  455.44   14.50
   2   2 -10  499.35   15.74
  -2  -2   9  588.56   18.41
   2   2  -9  621.94   19.37
  -2  -2   8  960.99   29.47
   2   2  -8 1061.85   32.56
  -2  -2   7 1001.66   30.63
   2   2  -7  993.16   30.43
  -2  -2   6  183.52    6.35
   2   2  -6  186.77    6.51
  -2  -2   5 2679.64   80.83
   2   2  -5 2710.79   81.83
  -2  -2   4 2929.77   88.30
   2   2  -4 2844.63   85.81
   2   2  -2 1031.12   31.42
   2   2  -2 1074.72   32.55
  -2  -2   1 1646.44   49.77
   2   2  -1 1615.44   48.80
  -2  -2   0 1691.62   51.10
   2   2   0 1627.62   49.14
  -2  -2  -3 3834.83  115.46
   2   2   3 4075.92  122.64
  -2  -2  -4 5032.67  151.44
   2   2   4 4751.26  142.96
   2   2   5 6788.78  204.22
  -2  -2  -6 3394.98  102.32
   2   2   6 3411.52  102.88
  -2  -2  -7 1846.76   55.84
   2   2   7 1858.75   56.27
  -2  -2  -8 3037.46   91.62
   2   2   8 3090.85   93.27
  -2  -2  -9 1061.92   32.37
   2   2   9 1028.05   31.49
  -2  -2 -10  276.02    9.16
   2   2  10  289.32    9.71
  -2  -2 -11   85.95    4.32
   2   2  11  101.22    5.25
  -2  -3  15   38.03    4.98
   2   3 -15   31.84    4.21
  -2  -3  14   25.24    4.13
   2   3 -14   35.74    3.96
  -2  -3  13   33.76    3.79
   2   3 -13   34.68    3.68
  -2  -3  12    8.82    3.18
   2   3 -12    3.24    2.97
  -2  -3  11    2.55    2.85
   2   3 -11   -0.84    2.95
  -2  -3  10    8.85    2.80
   2   3 -10   13.08    2.86
  -2  -3   9    5.02    2.52
   2   3  -9    4.00    2.52
  -2  -3   8    2.73    2.40
   2   3  -8    0.13    2.56
  -2  -3   7    3.34    2.16
   2   3  -7    2.72    2.49
  -2  -3   6   13.60    2.18
   2   3  -6   10.53    2.41
   2   3  -5   11.25    1.79
   2   3  -5    8.55    2.12
   2   3  -4   78.26    3.60
   2   3  -4   87.73    3.44
   2   3  -3   14.09    1.97
   2   3  -3   12.35    1.52
  -2  -3   2    7.06    1.69
   2   3  -2    6.41    1.59
  -2  -3   1  115.18    4.21
   2   3  -1  111.55    4.08
  -2  -3   0   62.42    2.85
   2   3   0   60.32    2.82
  -2  -3  -1   80.59    3.38
   2   3   1   85.46    3.41
  -2  -3  -2  256.09    8.34
   2   3   2  283.11    9.06
  -2  -3  -3   35.46    2.45
   2   3   3   36.34    2.55
  -2  -3  -4  358.22   11.38
   2   3   4  356.57   11.31
  -2  -3  -5  122.85    4.73
   2   3   5  115.58    4.56
  -2  -3  -6   10.04    2.36
   2   3   6   12.24    2.56
  -2  -3  -7  110.65    4.38
   2   3   7  116.38    4.79
  -2  -3  -8   19.55    2.76
   2   3   8   16.84    3.00
  -2  -3  -9   25.00    3.16
   2   3   9   30.41    3.58
  -2  -3 -10    0.31    3.16
   2   3  10    7.57    3.58
  -2  -3 -11   -1.74    3.33
   2   3  11    3.68    4.65
   2   4 -15  739.14   22.94
   2   4 -15  744.70   23.14
   2   4 -14 1061.48   32.51
   2   4 -14 1042.55   31.96
   2   4 -13  780.58   24.16
   2   4 -13  712.34   22.21
   2   4 -12   55.54    3.85
   2   4 -11 2146.81   65.04
   2   4  -9 1031.48   31.50
   2   4  -9  983.45   30.17
   2   4  -8  805.96   24.72
   2   4  -8  831.00   25.70
   2   4  -7  191.72    6.56
   2   4  -7  201.58    7.09
   2   4  -6 5436.00  163.64
   2   4  -6 5403.31  162.52
   2   4  -5 4977.84  149.85
   2   4  -5 4821.37  145.00
   2   4  -4 5915.33  177.95
   2   4  -4 5742.88  172.64
  -2  -4   3 6526.76  196.22
  -2  -4   2 7552.44  226.90
  -2  -4   1 1515.38   45.91
   2   4  -1 1499.77   45.40
  -2  -4   0 3748.53  112.88
   2   4   0 3764.82  113.27
  -2  -4  -1 3055.16   92.15
   2   4   1 3109.67   93.75
  -2  -4  -2  781.71   24.01
   2   4   2  759.76   23.35
  -2  -4  -3  547.46   17.07
   2   4   3  495.51   15.52
  -2  -4  -4    8.10    2.34
   2   4   4    7.50    2.47
  -2  -4  -5  654.66   20.27
   2   4   5  663.97   20.57
  -2  -4  -6  401.41   12.75
   2   4   6  438.20   13.91
  -2  -4  -7 1095.90   33.43
   2   4   7 1149.83   35.12
  -2  -4  -8  748.89   23.11
   2   4   8  749.24   23.21
  -2  -4  -9  196.31    7.07
   2   4   9  211.53    7.82
  -2  -4 -10  605.39   18.87
   2   4  10  631.70   20.02
   2   5 -15   79.88    4.91
   2   5 -15   78.04    4.85
   2   5 -14   48.94    4.11
   2   5 -14   59.08    4.32
   2   5 -13   60.93    3.80
   2   5 -13   69.44    4.23
   2   5 -12  216.45    7.59
   2   5 -12  217.67    7.83
   2   5 -11   63.91    3.46
   2   5 -11   67.91    3.97
   2   5 -10  128.10    5.38
   2   5 -10  138.29    5.25
   2   5  -9  110.98    4.52
   2   5  -9  110.01    4.88
   2   5  -8   63.06    3.34
   2   5  -8   66.27    3.86
   2   5  -7  229.82    7.77
   2   5  -7  225.32    7.84
   2   5  -6    0.49    1.91
   2   5  -6    0.07    2.50
   2   5  -5    2.81    2.39
   2   5  -5   -0.46    1.96
  -2  -5   4  820.16   25.20
   2   5  -4  833.56   25.52
  -2  -5   3    8.88    2.19
   2   5  -3    8.00    2.13
  -2  -5   2  170.59    6.20
  -2  -5   1  123.35    4.68
   2   5  -1  112.80    4.41
  -2  -5   0   -0.36    2.13
   2   5   0   -0.13    2.26
  -2  -5  -1  271.86    8.92
   2   5   1  284.57    9.32
  -2  -5  -2   45.53    2.87
   2   5   2   50.97    3.20
  -2  -5  -3  713.67   22.07
   2   5   3  690.50   21.37
  -2  -5  -4  650.85   20.19
   2   5   4  706.39   21.88
  -2  -5  -5   54.71    3.21
   2   5   5   54.81    3.54
  -2  -5  -6  201.92    7.11
   2   5   6  214.87    7.65
  -2  -5  -7   12.73    3.02
   2   5   7   10.22    3.46
  -2  -5  -8    3.90    3.04
   2   5   8    7.94    3.52
  -2  -5  -9   52.75    3.87
   2   5   9   45.62    4.57
   2   6 -14  162.13    6.40
   2   6 -14  186.88    7.33
   2   6 -13   39.75    3.66
   2   6 -13   28.89    3.90
   2   6 -12 1590.89   48.31
   2   6 -12 1558.94   47.46
   2   6 -11 1157.24   35.30
   2   6 -11 1181.86   36.17
   2   6 -10 1885.92   57.08
   2   6 -10 1966.41   59.62
   2   6  -9  932.74   28.55
   2   6  -9  924.74   28.48
   2   6  -8  628.98   19.51
   2   6  -8  605.75   18.99
   2   6  -7 2380.30   71.88
   2   6  -7 2404.44   72.78
   2   6  -6 2196.14   66.40
   2   6  -6 2244.60   68.01
  -2  -6   5 3081.18   92.99
   2   6  -5 2868.36   86.54
  -2  -6   4 2114.27   64.02
   2   6  -4 2107.37   63.69
  -2  -6   3 3405.02  102.64
   2   6  -3 3148.25   94.89
   2   6  -2 2032.95   61.46
  -2  -6   1 5275.21  158.75
   2   6  -1 5186.41  156.09
  -2  -6   0 6736.18  202.55
   2   6   0 6835.04  205.45
  -2  -6  -1 3886.91  117.10
   2   6   1 3751.39  113.01
  -2  -6  -2 2701.88   81.55
   2   6   2 2855.16   86.19
  -2  -6  -3  489.27   15.43
   2   6   3  463.61   14.70
  -2  -6  -4 1347.50   41.02
   2   6   4 1456.74   44.31
  -2  -6  -5  649.85   20.20
   2   6   5  629.61   19.73
  -2  -6  -6  458.18   14.51
   2   6   6  480.60   15.42
  -2  -6  -7  101.44    4.72
   2   6   7  113.76    5.20
  -2  -6  -8    6.15    3.21
   2   6   8   16.06    4.11
  -2  -6  -9  206.50    7.81
   2   7 -14   42.27    4.51
   2   7 -14   37.72    3.95
   2   7 -13   10.87    3.82
   2   7 -13   13.11    3.48
   2   7 -12   18.54    3.69
   2   7 -12   15.70    3.35
   2   7 -11  138.44    6.14
   2   7 -11  126.96    4.98
   2   7 -10   -0.34    2.63
   2   7 -10   -0.97    3.36
   2   7  -9   93.81    4.59
   2   7  -9   91.74    4.09
   2   7  -8   21.02    2.67
   2   7  -8   18.55    3.17
   2   7  -7    5.39    2.85
   2   7  -7    2.59    2.26
   2   7  -6  121.73    5.11
   2   7  -6  128.73    4.98
  -2  -7   5    1.23    2.58
   2   7  -5    1.72    2.29
  -2  -7   4    5.12    2.32
   2   7  -4    5.06    2.39
  -2  -7   3    5.95    2.58
   2   7  -3    9.62    2.42
  -2  -7   2   -0.43    2.32
   2   7  -2    1.95    2.62
  -2  -7   1   78.85    3.91
   2   7  -1   89.11    4.04
  -2  -7   0   43.67    2.89
   2   7   0   44.30    3.08
  -2  -7  -1    0.07    2.57
   2   7   1    0.60    2.60
  -2  -7  -2   68.23    3.78
   2   7   2   65.66    4.08
  -2  -7  -3   94.34    4.24
   2   7   3   96.87    4.81
  -2  -7  -4    4.39    2.71
   2   7   4    6.66    3.34
  -2  -7  -5  106.78    4.87
   2   7   5  110.49    5.21
  -2  -7  -6   11.63    2.91
   2   7   6    9.42    3.81
  -2  -7  -7   14.34    3.45
   2   7   7    9.54    4.04
   2   8 -14  230.57    8.93
   2   8 -14  227.64    8.33
   2   8 -13  706.36   21.92
   2   8 -13  729.18   22.82
   2   8 -12  914.52   28.10
   2   8 -12  913.49   28.21
   2   8 -11 1834.61   55.56
   2   8 -11 1685.99   51.31
   2   8 -10 1124.14   34.26
   2   8 -10 1099.06   33.72
   2   8  -9  964.45   29.50
   2   8  -9  964.79   29.74
   2   8  -8 1125.70   34.53
   2   8  -8 1125.70   34.35
   2   8  -7 1203.02   36.65
   2   8  -7 1194.31   36.55
  -2  -8   6 2350.76   71.09
   2   8  -6 2246.24   67.88
  -2  -8   5    8.40    2.70
   2   8  -5    9.91    2.54
  -2  -8   4    6.73    2.73
   2   8  -4    7.03    2.64
  -2  -8   3   35.45    3.00
   2   8  -3   37.15    3.03
  -2  -8   2   64.23    3.53
   2   8  -2   75.00    3.84
  -2  -8   1  152.04    5.85
   2   8  -1  148.26    5.88
  -2  -8   0  145.37    5.69
   2   8   0  163.30    6.33
  -2  -8  -1   27.29    3.03
   2   8   1   30.19    3.33
  -2  -8  -2  167.78    6.31
   2   8   2  175.91    6.62
  -2  -8  -3  429.26   13.68
   2   8   3  453.69   14.66
  -2  -8  -4  461.89   14.61
   2   8   4  461.55   14.91
  -2  -8  -5 1392.10   42.32
   2   8   5 1497.29   45.64
  -2  -8  -6  693.47   21.44
   2   8   6  752.70   23.48
   2   9 -13   58.37    4.14
   2   9 -13   43.48    4.66
   2   9 -12  138.80    5.70
   2   9 -12  142.73    6.42
   2   9 -11   44.68    3.74
   2   9 -11   33.94    4.25
   2   9 -10   62.15    3.69
   2   9 -10   57.50    4.27
   2   9  -9    4.21    2.75
   2   9  -9   -0.31    3.50
   2   9  -8  215.06    7.51
   2   9  -8  207.58    7.75
   2   9  -7  314.84   10.29
   2   9  -7  339.37   11.40
  -2  -9   6    3.50    2.70
   2   9  -6    0.47    2.56
  -2  -9   5    7.90    2.82
   2   9  -5    6.56    2.99
  -2  -9   4  178.29    6.52
   2   9  -4  177.69    6.52
  -2  -9   3   17.58    2.89
   2   9  -3   18.55    2.79
  -2  -9   2    7.81    2.52
   2   9  -2    9.86    2.83
  -2  -9   1   -0.10    2.97
   2   9  -1    6.58    2.90
  -2  -9   0    5.34    2.84
   2   9   0    3.42    3.14
  -2  -9  -1   61.25    3.53
   2   9   1   52.22    3.80
  -2  -9  -2   30.42    3.24
   2   9   2   28.89    3.51
  -2  -9  -3    1.31    2.94
   2   9   3    5.15    3.39
  -2  -9  -4   35.06    3.31
   2   9   4   37.61    4.03
  -2  -9  -5    5.22    3.23
   2   9   5    8.44    4.06
   2  10 -12  191.37    7.69
   2  10 -12  207.17    7.55
   2  10 -11   18.01    3.56
   2  10 -11   19.68    4.25
   2  10 -10   -0.48    3.10
   2  10 -10    6.43    3.89
   2  10  -9   76.38    3.97
   2  10  -9   71.04    4.77
   2  10  -8  437.87   14.27
   2  10  -8  423.54   13.49
   2  10  -7 1531.97   46.49
   2  10  -7 1629.65   49.66
  -2 -10   6  378.11   12.23
   2  10  -6  379.81   12.16
  -2 -10   5  979.44   30.00
   2  10  -5  969.60   29.66
  -2 -10   4 1464.83   44.52
   2  10  -4 1572.05   47.64
  -2 -10   3 2033.17   61.55
   2  10  -3 2104.48   63.59
  -2 -10   2 2698.00   81.44
   2  10  -2 2627.94   79.30
  -2 -10   1  814.65   25.12
   2  10  -1  849.08   26.24
  -2 -10   0  934.89   28.66
   2  10   0 1007.73   30.98
  -2 -10  -1  987.10   30.22
   2  10   1  918.77   28.36
  -2 -10  -2  669.00   20.73
   2  10   2  683.48   21.35
  -2 -10  -3  308.80   10.20
   2  10   3  299.95   10.27
   2  11 -10    1.49    3.75
   2  11 -10    6.08    4.16
   2  11  -9    2.80    3.01
   2  11  -9    2.49    4.01
   2  11  -8   27.33    3.48
   2  11  -8   20.92    3.97
   2  11  -7    5.60    3.19
  -2 -11   6    1.13    3.23
   2  11  -6    0.89    2.99
  -2 -11   5   21.27    3.29
   2  11  -5   20.48    2.91
  -2 -11   4   40.13    3.47
   2  11  -4   41.92    3.50
  -2 -11   3   17.48    3.16
   2  11  -3   22.52    3.09
  -2 -11   2    4.40    2.95
   2  11  -2    3.03    2.95
  -2 -11   0   -0.80    2.97
   2  11   0    2.88    3.53
  -2 -11  -1   -0.59    3.16
   2  11   1   -1.22    3.89
   2  12  -8  144.95    5.75
   2  12  -8  126.67    5.92
  -2 -12   7   26.84    3.47
   2  12  -7   28.82    3.23
  -2 -12   6  127.86    5.17
   2  12  -6  125.60    5.35
  -2 -12   5   17.42    3.46
   2  12  -5   15.61    3.05
  -2 -12   4  370.40   12.05
   2  12  -4  417.26   13.23
  -2 -12   3  512.31   16.13
   2  12  -3  536.30   16.82
  -3  12   0  127.09    5.63
   3 -12   0  148.34    5.74
  -3  12  -1  543.49   17.30
   3 -12   1  653.24   20.32
  -3  12  -2  480.18   15.37
   3 -12   2  498.92   15.72
  -3  12  -3  485.33   15.68
   3 -12   3  427.05   13.50
  -3  12  -4  618.31   19.62
   3 -12   4  635.66   19.68
  -3  12  -5  887.72   27.50
   3 -12   5  898.85   27.50
  -3  12  -6  156.64    7.29
   3 -12   6  176.06    6.80
  -3  11   3    0.41    3.75
   3 -11  -3   -1.70    3.22
  -3  11   2   -0.07    3.66
   3 -11  -2    0.86    3.21
  -3  11   1    0.27    3.76
   3 -11  -1   -2.49    3.27
  -3  11   0    1.72    3.61
   3 -11   0   10.76    3.23
  -3  11  -1    8.10    4.05
   3 -11   1    3.23    3.16
  -3  11  -2   44.21    4.11
   3 -11   2   47.06    3.57
  -3  11  -3    2.67    3.81
   3 -11   3    0.72    2.88
  -3  11  -4   28.09    4.50
   3 -11   4   26.75    2.89
  -3  11  -5   84.81    5.20
   3 -11   5   89.35    4.23
  -3  11  -6   12.35    4.38
   3 -11   6    5.93    3.07
  -3  11  -7   42.41    4.85
   3 -11   7   51.90    3.77
  -3  11  -8   32.10    5.11
  -3  10   5  507.25   16.11
   3 -10  -5  542.24   17.05
  -3  10   4  713.31   22.19
   3 -10  -4  732.61   22.67
  -3  10   3 1562.06   47.47
   3 -10  -3 1693.43   51.34
  -3  10   2 1257.52   38.38
   3 -10  -2 1445.81   43.98
  -3  10   1  816.70   25.22
   3 -10  -1  900.52   27.71
  -3  10   0 1150.94   35.19
   3 -10   0 1141.41   34.85
  -3  10  -1  841.85   26.04
   3 -10   1  966.82   29.58
  -3  10  -2 1558.80   47.39
   3 -10   2 1729.89   52.37
  -3  10  -3  648.66   20.27
   3 -10   3  572.93   17.79
  -3  10  -4  646.11   20.27
   3 -10   4  683.18   21.09
  -3  10  -5  262.41    9.26
   3 -10   5  284.26    9.37
  -3  10  -6  601.93   18.94
   3 -10   6  673.71   20.78
  -3  10  -7 1013.25   31.16
   3 -10   7 1054.43   32.18
  -3  10  -8  579.85   18.38
  -3  10  -8  616.73   19.37
  -3   9   7   -0.73    4.51
   3  -9  -7    2.29    3.13
  -3   9   6   37.19    4.89
   3  -9  -6   41.12    3.68
  -3   9   5    3.63    3.63
   3  -9  -5    0.34    2.98
  -3   9   4   20.04    3.51
   3  -9  -4   23.38    3.37
  -3   9   3   25.96    3.80
   3  -9  -3   32.17    3.43
  -3   9   2    9.30    3.61
   3  -9  -2    9.03    2.98
  -3   9   1   75.08    4.46
   3  -9  -1   80.85    4.28
  -3   9   0    0.03    3.20
   3  -9   0    0.03    2.59
  -3   9  -1  144.70    5.86
   3  -9   1  157.73    5.92
  -3   9  -2  416.04   13.45
   3  -9   2  454.05   14.40
  -3   9  -3   18.24    3.20
   3  -9   3   18.85    2.73
  -3   9  -4   23.36    3.34
   3  -9   4   28.68    2.76
  -3   9  -5    8.11    3.28
   3  -9   5    3.85    2.44
  -3   9  -6    8.65    3.32
   3  -9   6    6.23    2.64
  -3   9  -7  114.25    5.04
   3  -9   7  137.50    5.17
  -3   9  -8   31.88    3.18
  -3   9  -8   41.50    3.46
  -3   9  -9    1.10    3.00
  -3   9  -9   -2.58    2.89
  -3   8   8  707.05   22.27
   3  -8  -8  809.09   24.91
  -3   8   7  762.24   23.97
   3  -8  -7  835.73   25.71
  -3   8   6  581.57   18.59
   3  -8  -6  583.28   18.29
  -3   8   5  501.61   16.04
   3  -8  -5  571.80   17.98
  -3   8   4 1284.49   39.22
   3  -8  -4 1353.01   41.17
  -3   8   3  572.10   18.02
   3  -8  -3  591.59   18.45
  -3   8   2  463.38   14.84
   3  -8  -2  502.24   15.85
  -3   8   1  380.39   12.36
   3  -8  -1  448.92   14.31
  -3   8   0  383.16   12.39
   3  -8   0  423.54   13.48
  -3   8  -1 2205.35   66.74
   3  -8   1 2587.59   78.14
  -3   8  -2   42.63    3.56
   3  -8   2   42.87    2.80
  -3   8  -3   83.32    4.21
   3  -8   3   90.27    3.87
  -3   8  -4    8.80    2.87
   3  -8   4    9.30    2.41
  -3   8  -5   -0.03    2.58
   3  -8   5    7.65    2.32
  -3   8  -6  194.06    6.76
   3  -8   6  200.35    6.81
  -3   8  -7   23.64    2.68
  -3   7  10   31.63    4.98
   3  -7 -10   40.96    4.07
  -3   7   9   46.78    4.59
   3  -7  -9   58.69    4.08
  -3   7   8   12.19    4.18
   3  -7  -8   14.15    3.52
  -3   7   7   11.97    4.29
   3  -7  -7   10.88    3.20
  -3   7   6   39.61    4.16
   3  -7  -6   53.26    3.95
  -3   7   5    6.42    3.66
   3  -7  -5   14.39    3.16
  -3   7   4   16.66    3.38
   3  -7  -4   22.45    2.87
  -3   7   3    9.93    3.03
   3  -7  -3   12.97    3.27
  -3   7   2   45.83    3.46
   3  -7  -2   45.89    3.39
  -3   7   1   14.46    2.89
   3  -7  -1   18.34    2.76
  -3   7   0  118.71    5.16
   3  -7   0  139.78    5.30
  -3   7  -1  464.86   14.74
   3  -7   1  522.14   16.29
  -3   7  -2   67.31    3.48
   3  -7   2   86.52    3.68
  -3   7  -3   50.42    3.25
   3  -7   3   53.23    2.92
  -3   7  -4   44.11    2.92
   3  -7   4   47.34    2.76
  -3   7  -5   23.74    2.54
   3  -7   5   27.58    2.26
  -3   7  -6  114.12    4.22
   3  -7   6  125.04    4.45
  -3   7  -7   12.88    2.02
  -3   7  -7    8.84    1.88
  -3   6  11  608.89   19.58
   3  -6 -11  627.70   19.58
  -3   6  10  454.11   15.04
   3  -6 -10  531.06   16.70
  -3   6   9  569.31   18.27
   3  -6  -9  612.07   19.16
  -3   6   8  205.67    7.84
   3  -6  -8  234.97    8.35
  -3   6   7  842.63   26.27
   3  -6  -7  974.14   29.97
  -3   6   6  687.42   21.65
   3  -6  -6  744.06   23.09
  -3   6   5  779.57   24.17
   3  -6  -5  865.26   26.68
  -3   6   4  163.31    6.21
   3  -6  -4  173.03    6.51
  -3   6   3   12.77    2.88
   3  -6  -3   11.05    2.81
  -3   6   2  471.53   14.98
   3  -6  -2  501.88   15.87
  -3   6   1  458.83   14.56
   3  -6  -1  521.08   16.37
  -3   6   0 1599.28   48.57
   3  -6   0 1730.25   52.42
  -3   6  -1 1760.68   53.37
   3  -6   1 1905.46   57.62
  -3   6  -2 3223.02   97.14
   3  -6   2 3684.68  110.97
  -3   6  -3 2240.05   67.67
   3  -6   3 2651.99   80.04
  -3   6  -4 5230.29  157.57
   3  -6   4 5488.17  165.38
  -3   6  -5 5572.55  168.27
   3  -6   5 6007.07  181.37
  -3   6  -6 4586.39  139.62
  -3   6  -6 4346.58  132.39
  -3   5  11   57.15    4.84
   3  -5 -11   68.46    4.38
  -3   5  10   36.20    4.55
   3  -5 -10   42.06    3.59
  -3   5   9   39.34    4.52
   3  -5  -9   44.64    3.70
  -3   5   8  162.39    6.67
   3  -5  -8  183.42    6.90
  -3   5   7    3.91    3.81
   3  -5  -7   -2.74    3.02
  -3   5   6   -1.13    3.19
   3  -5  -6    1.27    2.90
  -3   5   5    6.83    2.81
  -3   5   4   -0.89    2.74
   3  -5  -4   -3.80    2.97
  -3   5   3    3.15    2.56
   3  -5  -3    7.76    2.69
  -3   5   2   21.35    2.60
   3  -5  -2   17.58    2.76
  -3   5   1   35.66    2.81
   3  -5  -1   39.89    2.85
  -3   5   0   89.28    3.83
   3  -5   0  102.64    4.18
  -3   5  -1    3.87    1.99
   3  -5   1    3.14    1.93
  -3   5  -2    0.20    1.87
   3  -5   2    0.43    1.84
  -3   5  -3   12.11    1.74
   3  -5   3   12.77    1.81
  -3   5  -4   27.55    1.81
   3  -5   4   29.72    1.81
  -3   5  -5   65.58    2.44
   3  -5   5   79.76    2.81
  -3   4  12  167.67    7.17
   3  -4 -12  208.20    7.58
  -3   4  11  126.94    5.87
   3  -4 -11  157.10    6.14
  -3   4  10   82.60    5.20
   3  -4 -10   86.41    4.62
  -3   4   9   48.98    4.65
   3  -4  -9   58.04    4.07
  -3   4   8 1017.13   31.39
   3  -4  -8 1169.42   35.81
  -3   4   7 1242.23   38.05
   3  -4  -7 1385.24   42.24
  -3   4   6 1885.47   57.29
   3  -4  -6 2124.29   64.37
   3  -4  -5 1949.57   59.14
  -3   4   4  675.74   20.96
   3  -4  -4  749.54   23.23
  -3   4   3 5383.66  162.03
   3  -4  -3 5985.48  180.09
  -3   4   2 2800.84   84.57
   3  -4  -2 3177.49   95.87
  -3   4   1 1291.62   39.28
   3  -4  -1 1489.82   45.19
  -3   4   0 1689.35   51.16
   3  -4   0 1920.07   58.08
  -3   4  -1 2319.38   70.03
   3  -4   1 2620.96   79.07
  -3   4  -2  162.54    5.42
   3  -4   2  182.46    6.00
  -3   4  -3  650.40   19.86
   3  -4   3  765.57   23.36
  -3   4  -4 1495.05   45.81
   3  -4   4 1681.43   51.55
  -3   3  13   29.25    4.76
   3  -3 -13   30.29    3.65
  -3   3  12   81.01    5.19
   3  -3 -12  109.69    5.22
  -3   3  11   18.74    4.02
   3  -3 -11   25.69    3.55
  -3   3  10    0.34    3.65
   3  -3 -10   -1.96    3.41
  -3   3   9  109.87    5.46
   3  -3  -9  123.80    5.46
  -3   3   8    8.49    3.43
   3  -3  -8    6.39    2.93
  -3   3   7   15.12    3.24
   3  -3  -7   15.32    3.11
  -3   3   6    1.38    3.03
   3  -3  -6    0.49    2.77
  -3   3   5   87.01    3.96
   3  -3  -5  103.41    4.59
  -3   3   4    1.76    2.26
   3  -3  -4   -2.90    2.71
  -3   3   3   36.58    2.71
   3  -3  -3   46.48    3.29
  -3   3   2    2.05    1.98
   3  -3  -2    4.13    2.35
  -3   3   1   17.67    2.12
   3  -3  -1   24.66    2.37
  -3   3   0   55.87    2.73
   3  -3   0   59.25    2.93
  -3   3  -1    2.57    1.56
   3  -3   1    1.98    1.62
  -3   3  -2    1.69    1.17
   3  -3   2    0.16    1.34
  -3   3  -3    3.00    0.94
   3  -3   3    4.63    0.94
  -3   2  13 1005.40   31.05
   3  -2 -13 1156.33   35.33
  -3   2  12  441.12   14.50
   3  -2 -12  468.83   14.98
  -3   2  11  594.70   18.88
   3  -2 -11  689.91   21.52
  -3   2  10  237.71    8.60
   3  -2 -10  283.04    9.58
  -3   2   9  922.36   28.46
   3  -2  -9 1007.10   30.99
  -3   2   8  902.40   27.88
   3  -2  -8  979.95   30.16
  -3   2   7 1534.51   46.73
   3  -2  -7 1700.26   51.67
  -3   2   6  730.90   22.69
   3  -2  -6  862.06   26.56
  -3   2   5  771.06   23.77
   3  -2  -5  811.23   25.04
  -3   2   4 6575.92  197.70
   3  -2  -4 7116.32  213.95
  -3   1  14    6.11    4.48
   3  -1 -14   15.22    3.68
  -3   1  13   10.97    3.91
   3  -1 -13   11.48    3.78
  -3   1  12  135.88    6.20
   3  -1 -12  150.88    6.06
  -3   1  11   49.91    4.05
   3  -1 -11   54.37    4.05
  -3   1  10   15.37    3.44
   3  -1 -10   14.13    3.21
  -3   1   9   43.85    3.36
   3  -1  -9   51.43    3.32
  -3   1   8  222.13    7.96
   3  -1  -8  233.76    8.12
  -3   1   7   22.90    2.96
   3  -1  -7   26.02    3.02
  -3   1   6   19.03    2.49
   3  -1  -6   27.82    3.01
  -3   1   5  232.70    7.82
   3  -1  -5  256.59    8.57
  -3   1   4  290.08    9.38
   3  -1  -4  338.16   10.92
  -3   1   3  695.03   21.43
   3  -1  -3  813.67   25.03
  -3   1   2 1042.88   31.76
   3  -1  -2 1103.76   33.64
  -3   1   1   17.25    1.91
   3  -1  -1   18.13    1.84
  -3   1   0  472.76   14.60
   3  -1   0  519.07   16.00
  -3   1  -1   73.01    2.75
   3  -1   1   75.38    2.88
   3  -1   2   14.59    1.39
   3  -1   2   16.38    1.14
   3  -1   3  315.89    9.77
   3  -1   3  298.24    9.29
  -3   0  14  380.30   12.84
   3   0 -14  450.20   14.60
  -3   0  13  133.38    6.03
   3   0 -13  147.93    6.24
  -3   0  12  830.65   25.82
   3   0 -12  931.76   28.68
  -3   0  11 1068.51   32.87
   3   0 -11 1218.55   37.24
  -3   0  10 2159.02   65.37
   3   0 -10 2471.18   74.75
  -3   0   9 3243.13   97.88
   3   0  -9 3716.94  112.14
  -3   0   8 5543.67  166.90
   3   0  -8 6024.88  181.37
  -3   0   7 3109.07   93.84
   3   0  -7 3459.26  104.37
  -3   0   6 1312.78   39.99
   3   0  -6 1455.13   44.31
  -3   0   5 1354.76   41.22
   3   0  -5 1464.40   44.51
  -3   0   4 2871.48   86.61
   3   0  -4 3094.73   93.35
  -3   0   3 1116.23   33.94
   3   0  -3 1145.71   34.92
  -3   0   2  717.14   22.01
   3   0  -2  832.67   25.50
  -3   0   1   12.36    1.78
   3   0  -1   11.36    1.59
  -3   0   0   12.89    1.62
   3   0   0   16.68    1.78
   3   0   1 1821.58   55.04
   3   0   1 1815.74   54.78
   3   0   2 2953.33   89.06
   3   0   2 2928.30   88.37
   3   0   3 1496.06   45.28
   3   0   3 1462.13   44.33
   3   0   4 1084.28   32.92
  -3   0  -5  920.80   28.01
   3   0   5  939.58   28.64
  -3   0  -6  695.05   21.23
   3   0   6  705.98   21.62
  -3   0  -7  288.18    9.00
   3   0   7  302.65    9.53
  -3   0  -8 1300.49   39.70
   3   0   8 1342.48   41.01
  -3   0  -9  444.03   13.79
   3   0   9  494.49   15.37
  -3   0 -10  213.47    6.97
   3   0  10  288.30    9.29
  -3   0 -11   -1.21    1.80
   3   0  11  254.20    8.60
  -3  -1  14    6.83    4.32
   3   1 -14    5.90    3.73
  -3  -1  13   16.23    3.99
   3   1 -13   16.06    3.52
  -3  -1  12   13.81    3.66
   3   1 -12   18.49    3.25
  -3  -1  11   58.23    3.93
   3   1 -11   68.43    4.00
  -3  -1  10   56.53    3.76
   3   1 -10   48.40    3.53
  -3  -1   9  133.34    5.46
   3   1  -9  144.30    5.56
  -3  -1   8    9.05    2.38
   3   1  -8   12.35    2.74
  -3  -1   7    5.79    2.49
   3   1  -7   -1.54    2.49
  -3  -1   6  350.46   11.26
   3   1  -6  366.12   11.84
  -3  -1   5  615.09   19.06
   3   1  -5  617.37   19.22
  -3  -1   4  413.75   13.08
  -3  -1   3 1229.03   37.36
   3   1  -3 1297.08   39.47
  -3  -1   2  460.47   14.34
   3   1  -2  440.40   13.86
   3   1  -1 1904.74   57.52
   3   1  -1 1966.28   59.47
   3   1   0   27.91    1.69
   3   1   0   28.92    2.01
   3   1   1    9.51    1.62
   3   1   1   11.99    1.39
  -3  -1  -2  276.02    8.73
   3   1   2  269.59    8.50
  -3  -1  -3    0.95    1.37
   3   1   3   -0.82    1.47
  -3  -1  -4  220.18    7.00
   3   1   4  236.00    7.56
  -3  -1  -5  119.62    4.09
   3   1   5  132.43    4.65
  -3  -1  -6   41.74    2.12
   3   1   6   46.96    2.56
  -3  -1  -7    0.44    1.71
   3   1   7    4.01    2.11
  -3  -1  -8   17.79    2.05
   3   1   8   19.01    2.36
  -3  -1  -9    3.87    2.21
   3   1   9    4.28    2.55
  -3  -1 -10    0.03    2.37
   3   1  10    5.11    2.88
  -3  -1 -11    3.67    2.88
   3   1  11    4.89    3.54
  -3  -2  15 1031.87   31.92
   3   2 -15 1049.97   32.27
  -3  -2  14  490.56   15.92
   3   2 -14  554.64   17.53
  -3  -2  13  567.04   18.05
   3   2 -13  630.84   19.72
  -3  -2  12  179.51    6.97
   3   2 -12  209.81    7.74
  -3  -2  11  918.59   28.38
   3   2 -11  972.27   29.90
  -3  -2  10  821.80   25.45
   3   2 -10  863.10   26.65
  -3  -2   9 1611.78   49.03
   3   2  -9 1720.69   52.27
  -3  -2   8  601.18   18.76
   3   2  -8  634.11   19.86
  -3  -2   7  377.21   12.16
   3   2  -7  364.10   11.73
  -3  -2   6 1968.46   59.62
   3   2  -6 2074.58   62.85
  -3  -2   5 1580.89   47.92
   3   2  -5 1609.21   48.90
   3   2  -4 3606.21  108.74
   3   2  -3  191.22    6.36
   3   2  -3  190.83    6.72
   3   2  -2  113.01    4.12
   3   2  -2  123.58    4.67
   3   2  -1  295.75    9.35
   3   2  -1  291.69    9.44
  -3  -2   0  138.20    4.81
   3   2   0  130.28    4.55
  -3  -2  -1 1160.67   35.24
   3   2   1 1214.40   36.83
  -3  -2  -2  246.71    7.97
   3   2   2  247.04    7.97
  -3  -2  -3 1008.66   30.73
   3   2   3 1061.12   32.26
  -3  -2  -4 1448.97   43.92
   3   2   4 1555.37   47.08
  -3  -2  -5 2401.55   72.49
   3   2   5 2405.85   72.66
  -3  -2  -6 1222.98   37.11
   3   2   6 1395.03   42.35
  -3  -2  -7 4097.28  123.53
   3   2   7 4345.81  131.04
  -3  -2  -8 1419.29   43.10
   3   2   8 1519.17   46.11
  -3  -2  -9  640.85   19.78
   3   2   9  747.78   23.10
  -3  -2 -10  320.23   10.45
   3   2  10  369.80   12.08
  -3  -2 -11   11.12    3.77
   3   2  11   21.30    4.70
  -3  -3  15  215.69    8.56
   3   3 -15  231.34    8.42
  -3  -3  14   48.34    4.51
   3   3 -14   52.88    4.20
  -3  -3  13   45.47    4.23
   3   3 -13   54.44    4.09
  -3  -3  12  137.84    5.89
   3   3 -12  150.05    5.98
  -3  -3  11  122.29    5.30
   3   3 -11  123.63    5.33
  -3  -3  10  104.19    4.80
   3   3 -10  102.08    4.64
  -3  -3   9   53.40    3.45
   3   3  -9   55.72    3.54
  -3  -3   8  136.55    5.44
   3   3  -8  151.25    5.90
  -3  -3   7   -0.20    2.40
   3   3  -7   -0.30    2.46
  -3  -3   6  311.58   10.24
   3   3  -6  319.66   10.46
   3   3  -5  240.70    8.12
   3   3  -5  239.10    7.86
   3   3  -4   17.33    1.95
   3   3  -4   20.84    2.54
   3   3  -3    8.53    1.85
   3   3  -3    9.75    2.35
   3   3  -2  284.53    9.14
   3   3  -2  289.73    9.57
  -3  -3   1   15.59    1.98
   3   3  -1   15.23    1.92
  -3  -3   0   25.07    2.15
   3   3   0   30.23    2.18
  -3  -3  -1   35.56    2.55
   3   3   1   38.51    2.45
  -3  -3  -2    2.50    1.81
   3   3   2    0.49    1.91
  -3  -3  -3   -0.20    1.91
   3   3   3   -0.07    1.94
  -3  -3  -4    0.56    1.98
   3   3   4    1.55    2.16
  -3  -3  -5    4.66    2.13
   3   3   5    5.42    2.33
  -3  -3  -6   81.80    3.72
   3   3   6   91.11    4.19
  -3  -3  -7   22.76    2.60
   3   3   7   29.01    3.21
  -3  -3  -8   41.27    3.23
   3   3   8   38.13    3.55
  -3  -3  -9    8.04    3.13
   3   3   9    7.87    3.43
  -3  -3 -10   26.86    3.43
   3   3  10   31.34    4.16
   3   4 -15  457.16   14.57
   3   4 -15  473.16   15.30
   3   4 -14  179.44    6.89
  -3  -4  13   30.72    3.65
   3   4 -13   38.78    3.96
  -3  -4  12  933.36   28.78
   3   4 -12  985.15   30.30
  -3  -4  11  634.12   19.83
   3   4 -11  639.83   20.06
  -3  -4  10  358.22   11.82
   3   4 -10  394.61   12.79
   3   4  -8    7.66    2.28
   3   4  -8    1.62    2.91
   3   4  -7 1563.76   47.41
   3   4  -7 1560.13   47.48
   3   4  -5 1631.72   49.41
   3   4  -5 1586.24   48.23
   3   4  -4 4502.04  135.45
   3   4  -4 4740.53  142.77
   3   4  -3 6830.33  205.33
   3   4  -3 7303.75  219.70
  -3  -4   2 2882.90   87.00
   3   4  -2 2754.56   83.08
  -3  -4   1 7427.30  223.27
  -3  -4  -1 4358.17  131.27
   3   4   1 4502.67  135.54
  -3  -4  -2 3295.03   99.34
   3   4   2 3470.71  104.62
  -3  -4  -3  325.64   10.46
   3   4   3  345.96   11.16
  -3  -4  -4 1453.40   44.09
   3   4   4 1494.01   45.36
  -3  -4  -5 1041.41   31.78
   3   4   5 1081.26   33.05
  -3  -4  -6 1320.13   40.10
   3   4   6 1475.92   44.82
  -3  -4  -7  753.77   23.25
   3   4   7  878.15   27.05
  -3  -4  -8  405.52   12.96
   3   4   8  454.21   14.57
  -3  -4  -9  639.88   19.86
   3   4   9  736.78   23.01
   3   5 -15    7.77    3.69
   3   5 -15    0.35    4.32
   3   5 -14    2.93    3.38
   3   5 -14    0.89    3.55
   3   5 -13   51.10    3.76
   3   5 -13   42.00    4.07
   3   5 -12   11.84    3.46
   3   5 -12   15.47    3.02
   3   5 -11    4.82    2.70
   3   5 -11    2.93    3.20
   3   5 -10    1.41    2.84
   3   5 -10   -1.67    2.48
   3   5  -9    8.03    3.26
   3   5  -9    8.89    2.53
   3   5  -8    1.42    2.45
   3   5  -8    4.57    3.08
   3   5  -7    1.88    3.04
   3   5  -7    1.49    2.18
   3   5  -6   20.02    2.51
   3   5  -6   18.24    3.26
   3   5  -5   10.05    2.53
   3   5  -5   11.83    2.23
   3   5  -4   15.65    2.40
   3   5  -4   15.94    2.10
  -3  -5   3    3.15    2.14
   3   5  -3    5.28    1.97
  -3  -5   2   49.53    2.89
   3   5  -2   48.35    2.99
  -3  -5   1   18.08    2.37
   3   5  -1   18.44    2.37
  -3  -5   0   40.28    2.93
   3   5   0   34.09    2.70
  -3  -5  -1   77.73    3.76
   3   5   1   91.67    3.99
  -3  -5  -2  247.23    8.26
   3   5   2  245.81    8.23
  -3  -5  -3  262.53    8.69
   3   5   3  263.73    8.83
  -3  -5  -4    0.23    2.61
   3   5   4    2.08    2.78
  -3  -5  -5  264.58    8.84
   3   5   5  299.75    9.95
  -3  -5  -6    6.66    2.78
   3   5   6    4.07    3.26
  -3  -5  -7    1.68    2.91
   3   5   7    0.21    3.60
  -3  -5  -8   35.58    3.49
   3   5   8   40.12    4.35
   3   6 -14   42.31    4.39
   3   6 -14   34.84    3.74
   3   6 -13  788.61   24.46
   3   6 -13  718.97   22.33
   3   6 -12  667.51   20.87
   3   6 -12  667.18   20.66
   3   6 -11  680.88   21.10
   3   6 -11  692.38   21.63
   3   6 -10  462.07   14.92
   3   6 -10  458.38   14.49
   3   6  -9  171.48    6.66
   3   6  -9  153.35    5.72
   3   6  -8 1254.34   38.35
   3   6  -8 1305.61   39.72
   3   6  -7  555.68   17.35
   3   6  -7  526.81   16.72
   3   6  -6  472.16   15.15
   3   6  -6  464.22   14.63
   3   6  -5  391.40   12.82
   3   6  -5  394.04   12.52
  -3  -6   4 1018.03   31.21
   3   6  -4 1003.18   30.69
  -3  -6   3   71.01    3.60
   3   6  -3   78.10    3.73
  -3  -6   2 1501.51   45.64
   3   6  -2 1636.57   49.70
  -3  -6   1 3330.69  100.42
   3   6  -1 3436.53  103.62
  -3  -6   0 2825.63   85.28
   3   6   0 2813.02   84.88
  -3  -6  -1 3619.41  109.05
   3   6   1 3576.16  107.76
  -3  -6  -2  519.45   16.33
   3   6   2  557.87   17.47
  -3  -6  -3 2732.45   82.46
   3   6   3 2723.72   82.25
  -3  -6  -4 1917.74   58.08
   3   6   4 2052.14   62.16
  -3  -6  -5  918.90   28.15
   3   6   5 1070.18   32.84
  -3  -6  -6  383.97   12.34
   3   6   6  408.63   13.30
  -3  -6  -7    5.08    3.14
   3   6   7    8.04    4.04
  -3  -6  -8  148.15    6.07
   3   6   8  155.52    7.25
   3   7 -14   34.59    3.95
   3   7 -14   26.84    4.59
   3   7 -13  135.78    5.96
   3   7 -13  144.49    5.96
   3   7 -12  123.18    5.00
   3   7 -12  125.61    5.64
   3   7 -11  173.05    6.76
   3   7 -11  173.70    6.32
   3   7 -10   90.07    4.15
   3   7 -10   91.18    5.00
   3   7  -9   95.01    4.21
   3   7  -9   99.42    4.94
   3   7  -8  139.92    5.36
   3   7  -8  140.39    5.96
   3   7  -7  213.55    7.37
   3   7  -7  234.77    8.37
   3   7  -6   -1.17    3.06
   3   7  -6   -0.16    2.70
   3   7  -5    3.03    2.76
   3   7  -5    2.72    2.30
  -3  -7   4   18.51    2.85
   3   7  -4   17.24    2.56
  -3  -7   3   23.99    2.82
  -3  -7   2    0.23    2.53
   3   7  -2    1.76    2.40
  -3  -7   1   27.36    2.93
   3   7  -1   29.65    2.96
  -3  -7   0   30.35    3.01
   3   7   0   31.44    3.34
  -3  -7  -1    8.35    2.95
   3   7   1    1.64    3.08
  -3  -7  -2  142.86    5.59
   3   7   2  137.37    5.69
  -3  -7  -3    3.72    2.51
   3   7   3    8.88    3.32
  -3  -7  -4   43.75    3.37
   3   7   4   50.29    3.71
  -3  -7  -5    2.88    2.99
   3   7   5    6.01    3.67
  -3  -7  -6    3.56    3.07
   3   7   6    5.60    3.87
  -3  -7  -7   37.95    4.08
   3   8 -13  259.77    8.90
   3   8 -13  252.02    9.21
   3   8 -12 1028.91   31.46
   3   8 -12 1058.13   32.59
   3   8 -11  739.27   22.79
   3   8 -11  762.84   23.77
   3   8 -10 1235.07   37.61
   3   8 -10 1228.96   37.65
   3   8  -9 2696.28   81.58
   3   8  -9 2572.16   77.66
   3   8  -8 3497.63  105.33
   3   8  -8 3379.69  102.03
   3   8  -7 5637.84  169.54
   3   8  -7 5856.23  176.39
   3   8  -6 2757.17   83.19
   3   8  -6 2656.24   80.44
  -3  -8   5 3267.26   98.53
   3   8  -5 3246.50   97.85
  -3  -8   4 1689.97   51.22
   3   8  -4 1589.53   48.21
   3   8  -3 1943.67   58.99
  -3  -8   2 1435.47   43.73
   3   8  -2 1412.00   43.07
  -3  -8   1  408.72   13.11
   3   8  -1  418.81   13.51
  -3  -8   0  281.41    9.47
   3   8   0  272.11    9.31
  -3  -8  -1   76.12    3.93
   3   8   1   86.58    4.50
  -3  -8  -2  239.16    8.13
   3   8   2  237.15    8.44
  -3  -8  -3  169.03    6.23
   3   8   3  176.96    6.87
  -3  -8  -4  778.12   23.95
   3   8   4  809.43   25.05
  -3  -8  -5  250.00    8.45
   3   8   5  275.14    9.67
   3   9 -13   24.05    3.90
   3   9 -13   15.54    4.67
   3   9 -12    1.38    3.56
   3   9 -12    2.25    4.15
   3   9 -11   -0.24    3.03
   3   9 -11    3.51    4.09
   3   9 -10   17.63    2.91
   3   9 -10   14.23    3.76
   3   9  -9   65.49    3.82
   3   9  -9   59.25    4.26
   3   9  -8  248.57    8.49
   3   9  -8  251.63    8.99
   3   9  -7  112.11    4.71
   3   9  -7  106.52    5.14
   3   9  -6   37.39    3.08
   3   9  -6   36.85    3.79
  -3  -9   5  228.72    7.94
   3   9  -5  226.62    7.73
  -3  -9   4   12.30    3.00
   3   9  -4   18.85    2.97
  -3  -9   3   56.08    3.71
   3   9  -3   58.07    3.58
  -3  -9   2    1.73    2.98
   3   9  -2   -0.24    3.14
  -3  -9   1   12.08    3.02
   3   9  -1   13.58    3.06
  -3  -9   0   88.98    4.32
   3   9   0   98.07    4.74
  -3  -9  -1   16.04    3.08
   3   9   1   15.18    3.32
  -3  -9  -2    3.95    2.72
   3   9   2    2.24    3.58
  -3  -9  -3   16.25    3.21
   3   9   3   19.26    4.04
  -3  -9  -4   12.14    3.27
   3   9   4   15.45    3.79
   3  10 -12  112.91    5.51
   3  10 -12  114.73    6.27
   3  10 -11   18.48    3.46
   3  10 -11   13.52    4.26
   3  10 -10   41.44    3.55
   3  10 -10   44.61    4.65
   3  10  -9   24.29    3.75
   3  10  -9   24.37    3.10
   3  10  -8  392.94   12.54
   3  10  -8  390.88   12.95
   3  10  -7   66.21    3.69
   3  10  -7   59.27    4.31
   3  10  -6   70.82    3.96
  -3 -10   5   81.76    4.23
   3  10  -5   95.29    4.19
  -3 -10   4  347.96   11.36
   3  10  -4  381.04   12.18
  -3 -10   3  785.44   24.24
   3  10  -3  791.24   24.29
  -3 -10   2  109.96    4.58
   3  10  -2  114.75    5.17
  -3 -10   1  447.04   14.20
   3  10  -1  476.55   15.23
  -3 -10   0  371.18   12.05
   3  10   0  314.09   10.61
  -3 -10  -1  206.14    7.33
   3  10   1  204.54    7.64
  -3 -10  -2  150.44    5.95
   3  10   2  159.31    6.60
   3  11 -10   54.13    4.88
   3  11 -10   54.68    3.69
   3  11  -9   19.82    4.16
   3  11  -9   22.45    3.16
   3  11  -8    0.38    2.83
   3  11  -8   -1.49    3.80
   3  11  -7   -3.11    2.90
   3  11  -7    2.73    4.22
  -3 -11   6   28.28    3.28
   3  11  -6   22.45    3.20
  -3 -11   5   21.86    3.31
   3  11  -5   16.58    2.93
  -3 -11   4    5.80    3.14
   3  11  -4    2.87    3.00
  -3 -11   3    5.43    3.28
   3  11  -3    2.52    3.04
  -3 -11   2   10.24    3.12
   3  11  -2   11.56    3.85
  -3 -11   1   34.54    3.51
   3  11  -1   34.69    4.10
  -4  12  -2  359.85   12.70
   4 -12   2  404.14   13.05
  -4  11   3    9.37    3.96
   4 -11  -3    9.13    3.55
  -4  11   2   36.02    4.13
   4 -11  -2   27.79    3.54
  -4  11   1   21.24    3.84
   4 -11  -1   21.52    3.60
  -4  11   0   19.75    3.84
   4 -11   0   17.36    3.28
  -4  11  -1   52.91    4.03
   4 -11   1   71.49    4.07
  -4  11  -2    7.00    4.59
   4 -11   2    9.45    2.79
  -4  11  -3    7.87    4.41
   4 -11   3    3.00    3.14
  -4  11  -4   47.46    4.94
   4 -11   4   48.99    3.45
  -4  11  -5    1.45    4.43
   4 -11   5   -1.14    3.08
  -4  11  -6   42.93    5.59
   4 -11   6   40.22    3.71
  -4  11  -7   -4.39    5.62
   4 -11   7    5.02    4.01
  -4  10   5  131.28    5.90
   4 -10  -5  125.90    5.46
  -4  10   4  702.38   21.88
   4 -10  -4  807.11   24.92
  -4  10   3  444.01   14.25
   4 -10  -3  483.60   15.35
  -4  10   2  422.62   13.69
   4 -10  -2  461.73   14.75
  -4  10   1  590.59   18.54
   4 -10  -1  700.77   21.76
  -4  10   0  498.72   15.85
   4 -10   0  574.57   17.97
  -4  10  -1 1171.71   35.81
   4 -10   1 1348.85   40.96
  -4  10  -2  398.65   13.04
   4 -10   2  469.30   14.78
  -4  10  -3  311.74   10.76
   4 -10   3  370.98   11.86
  -4  10  -4   63.61    4.69
   4 -10   4   70.63    3.66
  -4  10  -5  362.26   12.04
   4 -10   5  356.08   11.39
  -4  10  -6  489.12   15.67
   4 -10   6  544.55   17.04
  -4  10  -7  420.00   13.69
   4 -10   7  481.53   15.17
  -4  10  -8    0.80    3.96
  -4  10  -8   -4.55    3.79
  -4   9   6   18.24    4.01
   4  -9  -6   17.62    3.45
  -4   9   5   19.01    4.15
   4  -9  -5   16.80    3.19
  -4   9   4    0.69    3.49
   4  -9  -4   -0.79    3.35
  -4   9   3    1.70    3.64
   4  -9  -3    3.44    3.16
  -4   9   2    3.84    3.87
   4  -9  -2    3.63    3.15
  -4   9   1   41.95    4.24
   4  -9  -1   46.18    3.38
  -4   9   0   -0.16    3.69
   4  -9   0   -1.11    2.87
  -4   9  -1  104.93    5.21
   4  -9   1  122.48    5.03
  -4   9  -2   19.96    3.58
   4  -9   2   31.38    2.81
  -4   9  -3    3.62    3.45
   4  -9   3    9.51    2.77
  -4   9  -4    3.46    3.43
   4  -9   4    1.08    2.72
  -4   9  -5   15.44    3.34
   4  -9   5   13.21    2.52
  -4   9  -6   42.11    3.79
   4  -9   6   56.75    3.32
  -4   9  -7   -2.75    3.15
  -4   8   8  626.96   20.10
   4  -8  -8  699.05   21.66
  -4   8   6  603.67   19.01
   4  -8  -6  683.02   21.24
  -4   8   5 1789.46   54.33
   4  -8  -5 2014.67   61.03
  -4   8   4 1134.89   34.79
   4  -8  -4 1306.60   39.86
  -4   8   3 1501.93   45.72
   4  -8  -3 1585.62   48.15
  -4   8   2 1423.70   43.40
   4  -8  -2 1584.20   48.05
  -4   8   1 2165.44   65.63
   4  -8  -1 2413.95   72.95
  -4   8   0 5994.60  180.44
   4  -8   0 6447.46  193.89
  -4   8  -1 2242.58   67.87
   4  -8   1 2674.86   80.76
  -4   8  -2 1762.34   53.46
   4  -8   2 2032.80   61.51
  -4   8  -3 1662.01   50.44
   4  -8   3 1766.52   53.49
  -4   8  -4 1294.64   39.44
   4  -8   4 1392.98   42.30
  -4   8  -5 1232.78   37.57
   4  -8   5 1345.29   40.84
  -4   8  -6  189.54    6.58
   4  -8   6  264.56    8.51
  -4   7   9    5.43    4.36
   4  -7  -9    5.39    3.39
  -4   7   8   -1.13    4.12
   4  -7  -8   -4.05    3.12
  -4   7   7    3.68    3.82
   4  -7  -7    2.15    3.48
  -4   7   6    4.95    3.77
   4  -7  -6    6.34    3.29
  -4   7   5   37.77    3.71
   4  -7  -5   47.95    3.60
  -4   7   4   10.30    3.46
   4  -7  -4   14.20    3.03
  -4   7   3   46.31    3.68
   4  -7  -3   40.22    3.44
  -4   7   2   33.31    3.77
   4  -7  -2   42.40    3.33
  -4   7   1   49.69    3.97
   4  -7  -1   51.09    3.37
  -4   7   0  337.30   11.02
   4  -7   0  403.57   12.88
  -4   7  -1    6.92    2.60
   4  -7   1   10.92    2.46
  -4   7  -2   47.89    3.43
   4  -7   2   60.75    3.24
  -4   7  -3  113.47    4.78
   4  -7   3  125.05    4.64
  -4   7  -4   47.52    3.15
   4  -7   4   51.37    2.74
  -4   7  -5  240.75    7.89
   4  -7   5  304.86    9.60
  -4   7  -6   31.81    2.26
   4  -7   6   41.31    2.05
  -4   6  10  699.52   22.05
   4  -6 -10  816.34   25.16
  -4   6   9  666.75   21.08
   4  -6  -9  765.13   23.66
  -4   6   8 1143.08   35.19
   4  -6  -8 1228.84   37.50
  -4   6   7 1129.62   34.82
   4  -6  -7 1299.70   39.66
  -4   6   6 1690.82   51.37
   4  -6  -6 1778.90   53.99
  -4   6   5  405.88   13.18
   4  -6  -5  476.49   15.09
  -4   6   4  158.25    6.36
   4  -6  -4  183.18    6.80
  -4   6   3   39.54    3.65
   4  -6  -3   61.70    3.69
  -4   6   2    7.82    3.31
   4  -6  -2    9.42    2.85
  -4   6   1  225.09    7.78
   4  -6  -1  235.88    8.01
  -4   6   0  159.12    6.05
   4  -6   0  173.65    6.15
  -4   6  -1   12.44    2.81
   4  -6   1   12.98    2.52
  -4   6  -2   28.40    2.92
   4  -6   2   38.53    2.55
  -4   6  -3  158.80    5.61
   4  -6   3  186.32    6.31
  -4   6  -4 1475.65   44.75
   4  -6   4 1698.07   51.41
  -4   6  -5  808.39   24.83
   4  -6   5  946.06   28.97
  -4   5  11   -6.09    4.74
   4  -5 -11   -1.07    3.39
  -4   5  10   13.75    4.38
   4  -5 -10   14.91    3.42
  -4   5   9  395.26   13.26
   4  -5  -9  464.99   14.93
  -4   5   8   10.94    4.08
   4  -5  -8   14.93    3.24
  -4   5   7    3.45    3.79
   4  -5  -7    0.00    3.29
  -4   5   6   14.32    3.48
   4  -5  -6   15.72    2.91
  -4   5   5    2.63    2.89
   4  -5  -5    3.13    3.19
  -4   5   4   55.97    3.68
   4  -5  -4   78.13    4.31
  -4   5   3   -1.13    2.74
   4  -5  -3   -0.72    2.84
  -4   5   2   53.20    3.56
   4  -5  -2   64.14    3.85
  -4   5   1    3.39    2.80
   4  -5  -1   -1.08    2.51
  -4   5   0    1.81    2.54
   4  -5   0    1.94    2.33
  -4   5  -1    4.77    2.61
   4  -5   1    0.23    2.15
  -4   5  -2    2.44    2.15
   4  -5   2    0.07    1.98
  -4   5  -3    0.49    2.01
   4  -5   3    1.09    1.69
  -4   5  -4   54.92    2.42
   4  -5   4   67.48    2.58
  -4   4  12  213.41    8.49
   4  -4 -12  260.29    8.94
  -4   4  11  160.85    6.79
   4  -4 -11  205.80    7.62
  -4   4  10   11.98    4.11
   4  -4 -10   19.10    3.61
  -4   4   9  545.35   17.54
   4  -4  -9  610.57   19.30
  -4   4   8  552.76   17.82
   4  -4  -8  629.28   19.77
  -4   4   7 1060.65   32.73
   4  -4  -7 1191.10   36.46
  -4   4   6  874.71   27.02
   4  -4  -6  989.57   30.47
  -4   4   5  818.81   25.35
   4  -4  -5  969.88   29.88
  -4   4   4 3719.53  112.11
   4  -4  -4 4213.72  127.03
  -4   4   3 3651.02  110.06
   4  -4  -3 4101.24  123.63
  -4   4   2 3009.10   90.85
   4  -4  -2 3310.28   99.84
  -4   4   1 4136.88  124.56
   4  -4  -1 4713.81  141.91
  -4   4   0 3110.58   93.79
   4  -4   0 3500.99  105.52
  -4   4  -1  184.03    6.26
   4  -4   1  202.11    6.76
  -4   4  -2 1343.85   40.72
   4  -4   2 1542.36   46.73
  -4   4  -3 1799.02   54.53
   4  -4   3 1977.94   59.93
  -4   4  -4 1917.89   60.37
   4  -4   4 2033.93   64.74
  -4   3  13   75.25    5.36
   4  -3 -13   80.12    4.38
  -4   3  12   10.78    4.10
   4  -3 -12   11.98    3.38
  -4   3  11   33.78    4.27
   4  -3 -11   47.57    3.99
  -4   3  10  319.59   11.00
   4  -3 -10  389.58   12.83
  -4   3   9   13.68    3.66
   4  -3  -9    9.61    3.56
  -4   3   8   61.66    4.27
   4  -3  -8   73.35    4.24
  -4   3   7   17.73    3.31
   4  -3  -7   20.15    3.15
  -4   3   6   26.00    3.27
   4  -3  -6   33.37    3.47
  -4   3   5  209.07    7.34
   4  -3  -5  240.31    8.36
  -4   3   4   51.02    3.25
   4  -3  -4   62.76    3.78
  -4   3   3   -0.30    2.42
   4  -3  -3    2.26    2.55
  -4   3   2   35.86    2.72
   4  -3  -2   44.78    2.95
  -4   3   1    2.94    1.83
   4  -3  -1    1.99    2.13
  -4   3   0   36.08    2.36
   4  -3   0   47.95    2.75
  -4   3  -1    1.37    1.67
   4  -3   1    1.83    1.83
  -4   3  -2   30.75    1.84
   4  -3   2   39.21    2.20
  -4   3  -3   82.32    2.92
   4  -3   3   81.14    2.89
  -4   2  13  255.41    9.37
   4  -2 -13  287.15    9.79
  -4   2  12  453.14   14.83
   4  -2 -12  533.63   16.82
  -4   2  11  325.31   11.13
   4  -2 -11  375.87   12.36
  -4   2  10  612.77   19.43
   4  -2 -10  721.92   22.57
  -4   2   9  268.35    9.53
   4  -2  -9  290.66    9.94
  -4   2   8  384.32   12.70
   4  -2  -8  452.47   14.49
  -4   2   7   17.66    3.21
   4  -2  -7   21.06    3.17
  -4   2   5  187.33    6.59
   4  -2  -5  230.20    8.14
  -4   2   4  189.33    6.61
   4  -2  -4  211.23    7.49
  -4   2   3 1011.36   30.92
   4  -2  -3 1091.99   33.39
  -4   2   2 1964.39   59.44
   4  -2  -2 2164.93   65.51
  -4   2   1 4629.31  139.33
   4  -2  -1 5085.71  153.06
  -4   2   0  831.15   25.41
   4  -2   0  880.40   26.94
   4  -2   1 7653.75  230.30
   4  -2   2 6643.12  200.44
  -4   1  14   29.70    4.69
   4  -1 -14   36.59    4.35
  -4   1  13    1.04    3.92
   4  -1 -13    4.51    3.37
  -4   1  12   21.21    3.88
   4  -1 -12   21.05    3.69
  -4   1  11   54.28    4.26
   4  -1 -11   62.06    4.06
  -4   1  10   25.65    4.13
   4  -1 -10   24.06    3.66
  -4   1   9   59.58    4.00
   4  -1  -9   61.18    3.97
  -4   1   8   -2.39    3.31
   4  -1  -8    2.62    2.92
  -4   1   7    5.47    2.90
   4  -1  -7    6.67    2.70
   4  -1  -6    6.31    2.69
  -4   1   5    9.75    2.32
   4  -1  -5   14.34    2.78
  -4   1   4  118.66    4.63
   4  -1  -4  114.75    4.86
  -4   1   3  359.48   11.54
   4  -1  -3  393.70   12.61
  -4   1   2    5.90    2.08
   4  -1  -2    5.34    2.12
  -4   1   1  226.03    7.46
   4  -1  -1  251.53    8.24
  -4   1   0   30.54    2.02
   4  -1   0   28.56    2.12
  -4   1  -1   46.88    2.26
   4  -1   1   47.37    2.45
   4  -1   2   68.15    2.59
   4  -1   2   71.52    2.95
   4  -1   3    3.05    1.48
   4  -1   3    1.87    1.18
   4  -1   4  156.94    5.05
   4  -1   4  155.06    5.08
  -4   0  14   10.60    4.50
   4   0 -14    6.66    3.81
  -4   0  13   89.30    5.08
   4   0 -13  109.69    5.21
  -4   0  12  409.02   13.50
   4   0 -12  469.89   15.03
  -4   0  11  330.67   11.16
   4   0 -11  397.27   12.92
  -4   0  10  999.36   30.90
   4   0 -10 1064.98   32.75
  -4   0   9 3555.91  107.34
   4   0  -9 4001.64  120.62
  -4   0   8 2099.78   63.67
   4   0  -8 2320.40   70.26
  -4   0   7 2759.72   83.42
   4   0  -7 3112.95   93.99
  -4   0   6 4512.12  135.93
   4   0  -6 4620.34  139.27
  -4   0   5 2909.81   87.81
   4   0  -5 3029.79   91.63
  -4   0   3 1027.67   31.36
   4   0  -3 1052.43   32.18
  -4   0   2 3695.03  111.34
   4   0  -2 3828.50  115.31
  -4   0   1  875.35   26.77
   4   0  -1  879.26   26.94
   4   0   0 2690.70   81.12
   4   0   0 2722.01   82.12
   4   0   2 1960.42   59.36
   4   0   2 2042.65   61.69
   4   0   3 2797.93   84.51
   4   0   3 2668.37   80.66
   4   0   4  218.60    6.94
   4   0   4  209.25    6.87
   4   0   5 1344.98   40.92
   4   0   5 1359.60   41.41
   4   0   6  480.20   14.87
   4   0   6  479.53   14.90
  -4  -1  14   31.55    4.25
   4   1 -14   38.49    3.93
  -4  -1  13    6.85    3.94
   4   1 -13    4.62    3.46
  -4  -1  12   52.39    4.25
   4   1 -12   68.24    4.31
  -4  -1  11   58.98    4.24
   4   1 -11   58.54    4.11
  -4  -1  10  179.25    6.79
   4   1 -10  194.76    7.19
  -4  -1   9   14.15    3.05
   4   1  -9    6.18    2.95
  -4  -1   8  119.50    5.25
   4   1  -8  126.11    5.29
  -4  -1   7   13.88    2.73
   4   1  -7   10.66    2.82
  -4  -1   6  248.12    8.36
   4   1  -6  279.43    9.31
  -4  -1   5 1313.81   39.98
   4   1  -5 1445.55   44.07
  -4  -1   4 1967.05   59.57
   4   1  -4 1987.60   60.29
  -4  -1   3  479.08   15.06
   4   1  -3  494.07   15.68
  -4  -1   2  465.60   14.63
   4   1  -2  461.69   14.53
   4   1  -1   41.69    2.61
   4   1  -1   44.89    2.41
   4   1   0   23.41    1.86
   4   1   0   21.19    2.09
   4   1   1  792.22   24.32
   4   1   1  812.17   24.77
   4   1   2  129.63    4.53
   4   1   2  124.63    4.63
   4   1   3  510.15   15.72
   4   1   3  504.88   15.72
   4   1   4  713.29   21.96
   4   1   4  728.86   22.29
   4   1   5   47.69    2.49
   4   1   5   48.96    2.86
  -4  -1  -6   21.45    2.14
   4   1   6   19.51    2.21
  -4  -1  -7   45.55    2.57
   4   1   7   57.03    2.87
   4   1   8    7.66    2.38
   4   1   9   26.73    2.92
   4   1   9   23.80    2.86
  -4  -2  15  259.41    9.66
   4   2 -15  299.46   10.45
  -4  -2  14  551.07   17.64
   4   2 -14  578.33   18.22
  -4  -2  13  507.70   16.37
   4   2 -13  565.13   17.85
  -4  -2  12  732.95   22.95
   4   2 -12  781.42   24.35
  -4  -2  11  893.28   27.69
   4   2 -11  957.54   29.54
  -4  -2  10 1842.07   55.95
   4   2 -10 1993.13   60.45
  -4  -2   9 1126.93   34.55
   4   2  -9 1180.75   36.18
  -4  -2   8 1202.91   36.79
   4   2  -8 1259.10   38.48
  -4  -2   7 2731.49   82.55
   4   2  -7 2737.75   82.75
  -4  -2   6 3736.74  112.69
   4   2  -6 3785.96  114.17
  -4  -2   5 7271.51  218.57
   4   2  -5 7497.31  225.47
  -4  -2   4 2243.50   67.86
   4   2  -4 2173.58   65.89
   4   2  -3 2848.84   85.92
   4   2  -3 3000.31   90.62
   4   2  -2  394.68   12.63
   4   2  -2  401.53   12.60
   4   2  -1 1392.87   42.34
   4   2  -1 1442.86   43.75
   4   2   0 1601.79   48.57
   4   2   0 1620.12   49.03
   4   2   1  129.87    4.85
   4   2   1  124.43    4.50
  -4  -2  -3   11.21    1.98
   4   2   3   13.10    1.95
  -4  -2  -4  675.34   20.70
   4   2   4  736.16   22.53
  -4  -2  -5 1163.48   35.34
   4   2   5 1271.47   38.62
  -4  -2  -6 2216.92   67.02
   4   2   6 2411.83   72.91
  -4  -2  -7 1540.27   46.70
   4   2   7 1703.42   51.63
  -4  -2  -8  968.77   29.59
   4   2   8 1130.24   34.48
  -4  -2  -9  833.53   25.59
   4   2   9  966.11   29.66
  -4  -3  15   -4.63    4.67
   4   3 -15   -3.28    3.97
  -4  -3  14   19.63    4.11
   4   3 -14   21.04    4.07
  -4  -3  13  156.29    6.70
   4   3 -13  166.27    6.53
  -4  -3  12    3.32    3.46
   4   3 -12    7.29    3.12
  -4  -3  11    6.13    3.33
   4   3 -11    0.03    3.27
  -4  -3  10    7.63    3.21
   4   3 -10    0.83    3.21
  -4  -3   9   11.08    3.16
   4   3  -9   16.83    3.00
  -4  -3   8   26.22    2.98
   4   3  -8   22.47    2.98
  -4  -3   7   14.67    2.70
   4   3  -7   17.01    2.87
  -4  -3   6   49.24    3.19
   4   3  -6   49.76    3.61
   4   3  -5   71.30    3.34
   4   3  -5   75.20    3.83
   4   3  -4   65.05    3.57
   4   3  -4   62.39    2.91
   4   3  -3  186.81    6.42
   4   3  -3  198.04    7.08
   4   3  -2   11.06    2.62
   4   3  -2   10.51    1.99
   4   3  -1    8.49    2.33
   4   3  -1   10.33    2.07
   4   3   0   27.76    2.40
   4   3   0   23.95    2.43
  -4  -3  -1   12.95    2.15
   4   3   1   18.02    2.18
  -4  -3  -2  211.87    7.11
   4   3   2  216.70    7.28
  -4  -3  -3  113.26    4.39
   4   3   3  122.06    4.55
  -4  -3  -4   11.62    2.31
   4   3   4   15.90    2.60
  -4  -3  -5    8.77    2.38
   4   3   5   19.56    2.79
  -4  -3  -6   19.15    2.81
   4   3   6   24.70    2.84
  -4  -3  -7   15.42    2.90
   4   3   7   20.91    3.27
  -4  -3  -8   33.61    3.30
   4   3   8   50.48    4.02
  -4  -3  -9   36.55    3.92
   4   3   9   43.70    4.62
   4   4 -15  461.41   15.05
  -4  -4  14  167.59    6.87
   4   4 -14  177.35    6.83
  -4  -4  13 1278.43   39.15
   4   4 -13 1314.36   40.11
  -4  -4  12  599.92   19.02
   4   4 -12  622.67   19.56
  -4  -4  11  826.67   25.66
   4   4 -11  838.14   26.03
  -4  -4  10  181.67    6.97
   4   4 -10  198.93    7.41
   4   4  -9    6.00    2.17
   4   4  -9    4.73    3.30
   4   4  -8  508.65   16.26
   4   4  -8  486.42   15.33
   4   4  -7   41.76    3.70
   4   4  -7   49.72    3.04
   4   4  -6  122.18    4.72
   4   4  -6  130.61    5.51
   4   4  -4  909.78   28.14
   4   4  -4  925.88   28.40
   4   4  -3   33.55    2.46
   4   4  -3   25.14    2.96
   4   4  -2 2240.06   67.69
   4   4  -2 2264.72   68.65
   4   4  -1 2690.76   81.23
  -4  -4   0 3064.89   92.47
   4   4   0 3067.20   92.47
  -4  -4  -1 2278.64   68.85
   4   4   1 2444.50   73.79
  -4  -4  -2   11.20    2.33
   4   4   2   15.59    2.30
  -4  -4  -3 1461.50   44.35
   4   4   3 1469.85   44.58
  -4  -4  -4  714.07   22.04
   4   4   4  768.49   23.68
  -4  -4  -5  481.42   15.15
   4   4   5  528.75   16.57
  -4  -4  -6  194.16    6.84
   4   4   6  234.93    8.21
  -4  -4  -7    8.31    2.99
   4   4   7   19.61    3.43
  -4  -4  -8  219.36    7.69
   4   4   8  268.50    9.39
   4   5 -14  461.32   14.83
   4   5 -14  436.76   13.97
   4   5 -13   65.66    3.87
   4   5 -13   74.20    4.67
   4   5 -12   50.40    3.40
   4   5 -12   52.51    4.05
   4   5 -11  134.37    5.78
   4   5 -11  120.79    5.00
   4   5 -10   40.80    3.76
   4   5 -10   40.76    3.19
   4   5  -9  185.24    6.59
   4   5  -9  201.02    7.59
   4   5  -8   15.42    3.40
   4   5  -8    7.80    2.53
   4   5  -7    4.15    2.39
   4   5  -7   -1.42    3.25
   4   5  -6   99.91    4.70
   4   5  -6  104.27    4.43
   4   5  -5    1.42    2.38
   4   5  -5    3.99    3.01
   4   5  -4    7.60    2.51
   4   5  -4    9.61    3.47
   4   5  -3   36.45    3.47
   4   5  -3   29.76    2.67
   4   5  -2    3.21    2.55
  -4  -5   1   11.72    2.48
   4   5  -1   18.08    2.48
  -4  -5   0    6.87    2.35
   4   5   0   10.16    2.46
  -4  -5  -1    7.56    2.40
   4   5   1   10.53    2.53
  -4  -5  -2   62.09    3.31
   4   5   2   68.57    3.68
  -4  -5  -3   16.98    2.62
   4   5   3   18.53    2.96
  -4  -5  -4   69.50    3.69
   4   5   4   77.55    4.13
  -4  -5  -5    1.64    3.00
   4   5   5    1.40    3.16
  -4  -5  -6    0.24    3.15
   4   5   6    7.72    3.57
  -4  -5  -7   41.88    3.80
   4   5   7   39.27    4.60
   4   6 -14  687.41   21.40
   4   6 -14  740.82   23.06
   4   6 -13  404.57   12.93
   4   6 -13  434.14   14.11
   4   6 -12 1147.15   34.97
   4   6 -12 1161.84   35.56
   4   6 -11  586.69   18.33
   4   6 -11  609.76   19.23
   4   6 -10  723.11   22.34
   4   6 -10  739.64   23.11
   4   6  -9 2000.86   60.55
   4   6  -9 1883.65   57.29
   4   6  -8 1047.71   32.02
   4   6  -8  990.51   30.61
   4   6  -7 1023.82   31.31
   4   6  -7 1084.51   33.38
   4   6  -6  944.35   28.88
   4   6  -6  912.08   28.22
   4   6  -5  659.28   20.40
   4   6  -5  665.59   20.87
   4   6  -4    5.51    2.59
   4   6  -4    6.98    3.23
  -4  -6   2 1247.97   38.05
   4   6  -2 1247.97   38.02
  -4  -6   1 1868.38   56.63
   4   6  -1 1901.37   57.59
  -4  -6   0 1952.93   59.16
   4   6   0 2319.92   70.19
  -4  -6  -1  154.15    5.80
   4   6   1  165.32    6.24
  -4  -6  -2 3551.98  107.04
   4   6   2 3747.44  113.00
  -4  -6  -3 3318.76  100.05
   4   6   3 3547.46  106.93
  -4  -6  -4 2304.42   69.66
   4   6   4 2356.24   71.25
  -4  -6  -5 1468.22   44.63
   4   6   5 1470.28   44.74
  -4  -6  -6  501.14   15.89
   4   6   6  518.11   16.54
   4   7 -14   -0.28    4.36
   4   7 -14    0.38    3.55
   4   7 -13    5.29    3.14
   4   7 -13   -0.07    4.04
   4   7 -12    2.67    2.81
   4   7 -12    4.73    3.77
   4   7 -11   52.00    3.31
   4   7 -11   53.37    4.27
   4   7 -10   18.08    2.98
   4   7 -10   20.62    3.73
   4   7  -9  117.47    4.76
   4   7  -9  120.44    5.64
   4   7  -8  106.99    4.48
   4   7  -8  104.93    5.08
   4   7  -7    5.40    3.42
   4   7  -7    7.45    2.42
   4   7  -6   54.81    3.38
   4   7  -6   45.90    3.96
   4   7  -5   87.24    4.55
   4   7  -5   96.84    4.19
   4   7  -4    2.44    3.25
   4   7  -4    3.51    2.84
  -4  -7   3   27.91    3.11
   4   7  -3   34.70    3.25
  -4  -7   2    6.47    2.51
   4   7  -2    2.08    2.61
  -4  -7   1    7.53    2.88
   4   7  -1    8.13    3.29
  -4  -7   0   13.61    3.04
   4   7   0   17.02    3.27
  -4  -7  -1    8.53    2.90
   4   7   1    9.06    3.05
  -4  -7  -2   13.90    2.86
   4   7   2   17.37    3.47
  -4  -7  -3   27.45    3.01
   4   7   3   33.23    3.49
  -4  -7  -4    4.71    3.16
   4   7   4    6.57    3.51
  -4  -7  -5    0.59    3.53
   4   7   5    3.12    4.05
   4   8 -13   40.26    3.75
   4   8 -13   31.20    4.48
   4   8 -12   26.74    3.31
   4   8 -12   17.53    4.21
   4   8 -11    6.59    2.99
   4   8 -11    1.31    3.84
   4   8 -10  100.86    4.57
   4   8 -10   95.66    5.23
   4   8  -9  234.62    8.43
   4   8  -9  226.39    7.75
   4   8  -8 1664.24   50.41
   4   8  -8 1721.15   52.37
   4   8  -7  821.43   25.27
   4   8  -7  775.48   24.27
   4   8  -6 1571.33   47.66
   4   8  -6 1591.23   48.54
   4   8  -5 1595.01   48.37
   4   8  -5 1546.81   47.19
  -4  -8   4 2457.99   74.43
   4   8  -4 2094.29   63.41
  -4  -8   3 2836.69   85.66
   4   8  -3 2992.90   90.38
  -4  -8   2 1136.58   34.74
   4   8  -2 1158.88   35.45
  -4  -8   1 1299.77   39.61
   4   8  -1 1276.39   38.97
  -4  -8   0  155.48    5.95
   4   8   0  151.71    6.16
  -4  -8  -1  656.26   20.38
   4   8   1  643.63   20.07
  -4  -8  -2  569.71   17.78
   4   8   2  639.72   20.04
  -4  -8  -3  630.43   19.61
   4   8   3  708.11   22.06
  -4  -8  -4  268.98    9.04
   4   8   4  282.61    9.84
   4   9 -12    4.41    3.09
   4   9 -12    7.40    4.06
   4   9 -11   -0.97    2.90
   4   9 -11    1.24    4.11
   4   9 -10   87.30    4.33
   4   9 -10   80.18    4.85
   4   9  -9   18.42    2.98
   4   9  -9   24.93    4.32
   4   9  -8   89.18    4.17
   4   9  -8   89.69    4.95
   4   9  -7   10.60    3.03
   4   9  -7   10.15    3.61
   4   9  -6  106.26    5.51
   4   9  -6  103.22    4.45
   4   9  -5   -1.74    3.50
   4   9  -5   -0.24    2.75
  -4  -9   4    2.89    2.99
   4   9  -4    6.16    3.20
  -4  -9   3   11.10    3.07
   4   9  -3   13.46    3.16
  -4  -9   2   12.69    3.03
   4   9  -2   11.05    3.35
  -4  -9   1  152.01    5.81
   4   9  -1  148.70    6.02
  -4  -9   0   43.10    3.47
   4   9   0   33.69    3.74
  -4  -9  -1    0.03    2.66
   4   9   1    1.83    3.73
  -4  -9  -2   55.68    3.78
   4   9   2   66.88    4.24
   4  10 -11  731.77   22.85
   4  10 -11  744.32   22.91
   4  10 -10  768.74   23.61
   4  10 -10  744.11   23.23
   4  10  -9 1289.38   39.18
   4  10  -9 1333.25   40.74
   4  10  -8  323.51   10.54
   4  10  -8  312.08   10.78
   4  10  -7  412.65   13.11
   4  10  -7  414.02   13.51
   4  10  -6  447.58   14.12
   4  10  -6  447.92   14.57
   4  10  -5  809.09   24.83
   4  10  -5  796.38   24.69
  -4 -10   4 1048.06   32.17
  -4 -10   3  394.37   12.67
   4  10  -3  407.79   13.25
  -4 -10   2  542.90   16.97
   4  10  -2  564.97   17.83
  -4 -10   1  266.45    8.96
   4  10  -1  247.05    8.54
  -4 -10   0  168.31    6.43
   4  10   0  212.29    7.75
   4  11  -8   33.76    4.35
   4  11  -8   46.02    3.41
   4  11  -7   59.63    4.59
   4  11  -7   60.80    3.71
   4  11  -6   27.15    3.05
   4  11  -6   23.86    3.95
   4  11  -5   10.73    3.75
   4  11  -5   14.13    2.81
  -4 -11   4    2.16    3.27
   4  11  -4    2.43    3.58
  -5  11   1    8.21    3.96
   5 -11  -1    9.40    3.41
  -5  11   0   73.15    5.52
   5 -11   0   89.55    4.52
  -5  11  -1    5.66    4.93
   5 -11   1   17.60    3.27
  -5  11  -2   -0.66    4.83
   5 -11   2   -2.57    3.02
  -5  11  -3   78.38    5.70
   5 -11   3   88.15    4.35
  -5  11  -4   -0.98    4.77
   5 -11   4    2.41    3.38
  -5  10   4  347.19   11.68
   5 -10  -4  412.70   13.30
  -5  10   3  253.62    8.97
   5 -10  -3  326.79   10.83
  -5  10   2  639.34   20.15
   5 -10  -2  697.65   21.67
  -5  10   1  640.04   20.15
   5 -10  -1  762.61   23.52
  -5  10   0 1486.80   45.28
   5 -10   0 1809.67   54.78
  -5  10  -1  796.34   24.91
   5 -10   1  973.69   29.77
  -5  10  -2  491.68   15.95
   5 -10   2  560.78   17.43
  -5  10  -3  262.46    9.40
   5 -10   3  319.74   10.40
  -5  10  -4  544.04   17.56
   5 -10   4  603.37   18.77
  -5  10  -5  748.73   23.46
   5 -10   5  772.95   23.80
  -5  10  -6  352.51   11.92
   5 -10   6  454.97   14.35
  -5   9   6   -0.38    3.75
   5  -9  -6   -1.43    3.33
  -5   9   5   23.38    4.11
   5  -9  -5   20.13    3.59
  -5   9   4    5.46    3.58
   5  -9  -4   -1.55    3.40
  -5   9   3    3.36    3.39
   5  -9  -3    3.66    3.36
  -5   9   2   -3.04    3.93
   5  -9  -2   -3.45    2.93
  -5   9   1   -1.74    3.82
   5  -9  -1   -2.66    2.97
  -5   9   0  102.94    5.25
   5  -9   0  124.98    5.14
  -5   9  -1   -1.64    3.74
   5  -9   1    2.49    2.59
  -5   9  -2    5.86    3.85
   5  -9   2   16.50    2.93
  -5   9  -3    4.47    4.23
   5  -9   3    4.41    2.66
  -5   9  -4   32.71    4.21
   5  -9   4   34.52    2.91
  -5   9  -5   53.20    4.57
   5  -9   5   67.51    3.53
  -5   9  -6   -0.83    3.59
   5  -9   6   -1.96    2.65
  -5   8   7   42.23    4.39
   5  -8  -7   49.49    3.98
  -5   8   6  334.81   11.20
   5  -8  -6  360.80   11.85
  -5   8   5   48.48    4.28
   5  -8  -5   55.43    3.89
  -5   8   4   48.49    4.19
   5  -8  -4   57.38    4.05
  -5   8   3   25.12    3.97
   5  -8  -3   39.27    3.53
  -5   8   2  198.25    7.32
   5  -8  -2  230.24    8.06
  -5   8   1 2855.56   86.27
   5  -8  -1 3242.29   97.77
  -5   8   0  453.00   14.59
   5  -8   0  595.23   18.54
  -5   8  -1 1067.61   32.74
   5  -8   1 1215.25   37.03
  -5   8  -2 1564.07   47.58
   5  -8   2 1834.28   55.53
  -5   8  -3 2061.88   62.50
   5  -8   3 2244.82   67.82
  -5   8  -4 2845.26   86.04
   5  -8   4 2950.91   89.10
  -5   8  -5  846.41   26.08
   5  -8   5  991.29   30.24
  -5   8  -6  657.69   20.57
   5  -8   6  778.55   24.24
  -5   7   9    3.95    4.37
   5  -7  -9    5.94    3.57
  -5   7   8   23.06    4.00
   5  -7  -8   24.51    3.89
  -5   7   7   -4.14    3.66
   5  -7  -7   -3.90    3.22
  -5   7   6    2.62    3.31
   5  -7  -6    3.92    3.55
  -5   7   5    4.54    3.59
   5  -7  -5    3.01    3.35
  -5   7   4    3.75    3.61
   5  -7  -4    5.34    3.41
  -5   7   3    9.93    3.67
   5  -7  -3    5.82    2.93
  -5   7   2    0.37    3.53
   5  -7  -2    1.62    3.12
  -5   7   1  116.90    5.37
   5  -7  -1  139.64    5.54
  -5   7   0   10.73    3.35
   5  -7   0   14.02    3.02
  -5   7  -1    3.16    3.19
   5  -7   1    5.93    2.58
  -5   7  -2    9.78    2.96
   5  -7   2   16.42    2.66
  -5   7  -3   20.94    3.13
   5  -7   3   24.58    2.59
  -5   7  -4  127.72    4.96
   5  -7   4  167.06    5.67
  -5   7  -5   -0.61    2.34
   5  -7   5    0.34    1.56
  -5   6  10  381.15   12.83
   5  -6 -10  487.63   15.50
  -5   6   9 1043.76   32.31
   5  -6  -9 1266.40   38.57
  -5   6   8 1659.58   50.62
   5  -6  -8 1841.39   56.02
  -5   6   7 3081.65   93.01
   5  -6  -7 3746.77  112.92
  -5   6   6 2670.22   80.69
   5  -6  -6 3140.26   94.76
  -5   6   5 2395.11   72.54
   5  -6  -5 2751.39   83.11
  -5   6   4 2489.23   75.33
   5  -6  -4 2779.90   83.94
  -5   6   3 2063.93   62.59
   5  -6  -3 2207.70   66.80
  -5   6   2 3948.04  119.04
   5  -6  -2 4655.54  140.16
  -5   6   1  596.44   18.74
   5  -6  -1  665.79   20.63
  -5   6   0  364.01   11.86
   5  -6   0  423.68   13.47
  -5   6  -1  190.20    6.98
   5  -6   1  214.76    7.27
  -5   6  -2  418.95   13.23
   5  -6   2  481.08   15.03
  -5   6  -3  646.99   19.99
   5  -6   3  763.53   23.38
  -5   6  -4  451.87   14.11
   5  -6   4  515.36   15.89
  -5   6  -5  338.01   11.44
  -5   5  11    9.19    4.37
   5  -5 -11   10.13    3.51
  -5   5  10   94.14    5.81
   5  -5 -10  125.36    5.44
  -5   5   9   -2.60    3.99
   5  -5  -9    0.17    3.62
   5  -5  -8   11.70    3.77
  -5   5   7    8.80    3.54
   5  -5  -7    9.11    3.20
  -5   5   6   24.43    3.73
   5  -5  -6   25.51    3.53
  -5   5   5  161.63    6.45
   5  -5  -5  195.92    7.15
  -5   5   4    4.93    3.03
   5  -5  -4    5.63    3.43
  -5   5   3   18.21    3.49
   5  -5  -3   26.33    2.95
  -5   5   2   23.63    3.31
   5  -5  -2   24.85    3.18
  -5   5   1    4.15    3.22
   5  -5  -1    7.82    2.48
  -5   5   0   27.23    2.82
   5  -5   0   34.00    3.08
  -5   5  -1    3.08    2.79
   5  -5   1   -1.83    2.46
  -5   5  -2   15.40    2.59
   5  -5   2   18.69    2.33
  -5   5  -3    9.97    2.00
   5  -5   3   13.34    1.87
  -5   5  -4   24.40    1.91
   5  -5   4   26.28    1.57
  -5   4  12  240.04    9.04
   5  -4 -12  271.78    9.45
  -5   4  11   44.07    4.58
   5  -4 -11   47.93    4.24
  -5   4  10  354.78   12.27
   5  -4 -10  428.27   13.84
  -5   4   9  127.67    5.97
   5  -4  -9  168.51    6.65
  -5   4   8  311.63   10.69
   5  -4  -8  374.96   12.41
  -5   4   7   77.57    4.39
   5  -4  -7   96.47    4.70
  -5   4   6   74.87    4.21
   5  -4  -6   84.01    4.37
  -5   4   5  642.75   20.21
   5  -4  -5  731.52   22.85
  -5   4   4  649.12   20.33
   5  -4  -4  780.07   24.23
  -5   4   3 2320.04   70.20
   5  -4  -3 2653.50   80.23
  -5   4   2 1043.72   32.02
   5  -4  -2 1226.75   37.40
  -5   4   1 1657.20   50.30
   5  -4  -1 1895.65   57.40
  -5   4   0  265.56    8.82
   5  -4   0  325.44   10.54
  -5   4  -1 1082.38   32.98
   5  -4   1 1202.46   36.59
  -5   4  -2 1392.62   42.23
   5  -4   2 1558.70   47.27
  -5   4  -3 1052.95   32.09
   5  -4   3 1121.44   34.15
  -5   3  12   19.14    4.42
   5  -3 -12   11.85    3.90
  -5   3  11  286.69   10.21
   5  -3 -11  358.27   11.78
  -5   3  10    0.21    3.81
   5  -3 -10   -2.89    3.54
  -5   3   9    2.02    3.71
   5  -3  -9   12.25    3.65
  -5   3   8    4.36    3.52
   5  -3  -8    1.61    3.26
  -5   3   7    0.54    3.01
   5  -3  -7    2.83    2.94
  -5   3   6   75.13    4.12
   5  -3  -6   90.91    4.52
  -5   3   5   68.60    3.91
   5  -3  -5   72.18    4.14
  -5   3   4  215.04    7.60
   5  -3  -4  231.12    8.15
  -5   3   3  265.73    9.00
   5  -3  -3  298.13    9.88
  -5   3   2   11.49    2.93
   5  -3  -2   12.74    2.67
  -5   3   1  119.18    4.84
   5  -3  -1  127.54    5.04
  -5   3   0   13.31    2.28
   5  -3   0   19.51    2.34
  -5   3  -1   19.17    2.08
   5  -3   1   19.37    2.24
  -5   3  -2   10.02    1.75
   5  -3   2   11.05    2.08
   5  -3   3   34.08    1.79
   5  -3   3   38.89    2.02
  -5   2  13  529.01   17.03
   5  -2 -13  608.79   19.11
  -5   2  12  776.12   24.27
   5  -2 -12  926.67   28.52
  -5   2  11 1320.19   40.49
   5  -2 -11 1448.70   44.11
  -5   2  10 1257.58   38.60
   5  -2 -10 1393.93   42.56
  -5   2   9 2042.80   62.15
   5  -2  -9 2373.51   71.86
  -5   2   8  690.04   21.69
   5  -2  -8  795.30   24.69
  -5   2   7  526.70   16.69
   5  -2  -7  561.95   17.79
  -5   2   6  374.53   12.22
   5  -2  -6  444.07   14.41
  -5   2   5  249.11    8.74
   5  -2  -5  286.01    9.77
  -5   2   4  855.15   26.34
   5  -2  -4 1009.26   31.12
  -5   2   3  229.91    7.83
   5  -2  -3  252.07    8.58
  -5   2   2  285.04    9.36
   5  -2  -2  325.90   10.58
  -5   2   1  192.09    6.70
   5  -2  -1  198.76    6.73
  -5   2   0 1327.12   40.32
   5  -2   0 1343.23   40.85
  -5   2  -1 2963.54   89.40
   5  -2   1 3036.69   91.66
   5  -2   3 2042.65   62.03
   5  -2   3 2011.48   61.07
  -5   1  13    1.10    4.04
   5  -1 -13   -3.87    3.52
  -5   1  12  127.04    6.10
   5  -1 -12  163.47    6.47
  -5   1  11   22.15    3.77
   5  -1 -11   15.89    3.46
  -5   1  10   24.28    4.12
   5  -1 -10   27.24    3.60
  -5   1   9   58.73    4.19
   5  -1  -9   71.50    4.28
  -5   1   8   38.62    3.90
   5  -1  -8   49.61    3.79
  -5   1   7  166.85    6.27
   5  -1  -7  186.19    6.90
  -5   1   6   23.29    3.17
   5  -1  -6   34.76    3.27
  -5   1   5   20.92    2.87
   5  -1  -5   22.04    3.16
  -5   1   4   26.92    2.63
   5  -1  -4   32.18    3.09
  -5   1   3   11.42    2.50
   5  -1  -3   16.32    2.66
  -5   1   2   26.74    2.56
   5  -1  -2   30.16    2.73
  -5   1   1   -0.49    2.00
   5  -1  -1   -0.23    2.04
  -5   1   0    2.79    2.07
   5  -1   0    2.86    2.07
   5  -1   1   96.29    3.85
   5  -1   1   88.28    3.39
   5  -1   2   -0.43    1.49
   5  -1   2    0.30    1.82
   5  -1   3    4.85    1.32
   5  -1   3    6.01    1.89
   5  -1   4  264.30    8.30
   5  -1   4  270.03    8.56
  -5   0  14   70.94    5.11
   5   0 -14   83.38    4.52
  -5   0  13   25.99    4.16
   5   0 -13   32.40    3.75
  -5   0  12   20.51    4.27
   5   0 -12   20.65    3.72
  -5   0  11   37.39    4.33
   5   0 -11   35.90    3.53
  -5   0  10  618.27   19.64
   5   0 -10  664.02   20.92
  -5   0   9  239.86    8.66
   5   0  -9  266.98    9.26
  -5   0   8  407.78   13.27
   5   0  -8  425.74   13.67
  -5   0   7  345.40   11.36
  -5   0   6 1870.73   56.76
   5   0  -6 2021.87   61.34
  -5   0   5 4071.08  122.69
   5   0  -5 4229.05  127.59
  -5   0   4 1220.39   37.22
   5   0  -4 1290.70   39.52
  -5   0   3  897.57   27.56
   5   0  -3  933.34   28.68
  -5   0   2 1373.56   41.78
   5   0  -2 1403.42   42.69
  -5   0   1 3477.35  104.84
   5   0  -1 3418.24  103.00
   5   0   0 5008.67  150.69
   5   0   0 4982.36  150.03
   5   0   1 4087.73  123.06
   5   0   1 4091.03  123.33
   5   0   2 4468.08  134.57
   5   0   2 4425.08  133.44
   5   0   3 1911.10   57.82
   5   0   3 1836.05   55.65
   5   0   4 5429.56  164.08
   5   0   4 5576.40  168.39
   5   0   5 4934.02  149.74
   5   0   5 4789.69  145.43
   5   0   6 2994.60   92.24
   5   0   6 3034.80   93.52
  -5  -1  14   -3.19    4.26
   5   1 -14   -0.87    3.54
  -5  -1  13   -5.67    4.02
   5   1 -13    5.88    3.16
  -5  -1  12   -4.50    4.02
   5   1 -12    4.77    3.61
  -5  -1  11    5.31    3.58
   5   1 -11    6.13    3.11
  -5  -1  10    0.00    3.50
   5   1 -10   -1.21    2.93
  -5  -1   9    5.35    3.20
   5   1  -9    8.25    3.24
  -5  -1   8    3.42    3.03
   5   1  -8    3.00    2.79
   5   1  -7  160.55    6.19
  -5  -1   6   33.13    2.87
   5   1  -6   30.26    3.13
  -5  -1   5    1.28    2.44
   5   1  -5    1.28    2.83
  -5  -1   4   70.43    3.65
   5   1  -4   72.90    3.94
  -5  -1   3  348.46   11.23
   5   1  -3  366.20   11.83
   5   1  -2   26.74    2.14
   5   1  -2   23.39    2.73
   5   1  -1   33.60    2.60
   5   1  -1   32.62    2.27
   5   1   0  108.57    4.08
   5   1   0  119.31    4.61
   5   1   1   29.10    2.05
   5   1   1   28.30    2.51
   5   1   2  555.17   17.13
   5   1   2  527.98   16.51
   5   1   3  806.93   24.64
   5   1   3  761.99   23.47
   5   1   4   75.89    3.21
   5   1   4   81.65    3.91
   5   1   7   23.74    2.56
   5   1   7   22.24    2.90
  -5  -2  14  180.43    7.55
   5   2 -14  200.99    7.49
  -5  -2  13  242.81    8.85
   5   2 -13  268.35    9.27
  -5  -2  12  300.26   10.45
   5   2 -12  320.44   10.83
  -5  -2  11  993.56   30.73
   5   2 -11 1030.74   31.71
  -5  -2  10  334.85   11.39
   5   2 -10  354.06   11.82
  -5  -2   9  564.93   17.94
   5   2  -9  581.64   18.48
  -5  -2   8  810.38   25.18
   5   2  -8  809.39   25.08
  -5  -2   7 2264.55   68.58
   5   2  -7 2116.14   64.17
  -5  -2   6 6285.41  189.12
   5   2  -6 6249.07  188.13
  -5  -2   5 2152.23   65.19
   5   2  -5 2152.57   65.29
   5   2  -4 2992.84   90.49
   5   2  -3 2986.31   90.06
   5   2  -3 2985.33   90.25
   5   2  -2 3690.03  111.19
   5   2  -2 3505.69  105.79
   5   2  -1 3615.60  108.93
   5   2  -1 3447.50  103.95
   5   2   0  721.67   22.16
   5   2   0  719.69   22.23
   5   2   1  308.74    9.90
   5   2   1  311.49   10.17
   5   2   2  215.88    7.22
   5   2   2  225.06    7.71
   5   2   3  144.39    5.18
   5   2   3  138.57    5.38
   5   2   4   32.55    2.66
   5   2   4   28.65    3.32
   5   2   5  239.24    7.94
   5   2   5  224.70    7.87
   5   2   6   50.01    3.37
   5   2   6   42.32    3.55
   5   2   7   15.65    3.05
   5   2   7   16.68    3.40
  -5  -3  14  207.68    8.00
   5   3 -14  227.45    8.21
  -5  -3  13   76.41    5.05
   5   3 -13   79.44    4.84
  -5  -3  12   13.49    3.88
   5   3 -12   22.96    3.47
  -5  -3  11   37.75    4.00
   5   3 -11   33.09    3.55
  -5  -3  10   59.55    3.97
   5   3 -10   56.82    4.06
  -5  -3   9   86.23    4.51
   5   3  -9   89.45    4.51
  -5  -3   8   67.91    3.93
   5   3  -8   64.05    3.86
  -5  -3   7    6.84    2.76
   5   3  -7    4.88    3.25
   5   3  -6   22.74    3.61
   5   3  -6   23.80    2.78
   5   3  -5   51.61    3.14
   5   3  -5   58.94    4.13
   5   3  -4   70.26    3.47
   5   3  -4   74.55    4.39
   5   3  -3   -1.39    2.21
   5   3  -3    1.82    3.16
   5   3  -2    4.59    1.95
   5   3  -2    4.13    2.74
   5   3  -1   56.13    2.98
   5   3  -1   55.93    3.50
   5   3   0   79.24    3.58
   5   3   0   81.46    4.01
   5   3   1  210.11    7.09
   5   3   1  202.14    7.12
   5   3   2  306.16    9.88
   5   3   2  299.05    9.88
   5   3   3    4.57    2.32
   5   3   3    0.97    2.92
   5   3   4  220.10    7.46
   5   3   4  217.50    7.73
   5   3   5    2.45    2.86
   5   3   5    6.08    3.20
   5   3   6   11.16    3.18
   5   3   6   13.83    3.63
   5   3   7   10.11    3.73
   5   3   7    8.11    3.66
   5   3   8    1.95    4.18
   5   3   8    4.56    4.70
  -5  -4  14  902.82   28.08
   5   4 -14  963.46   29.64
  -5  -4  13 1041.76   32.13
   5   4 -13 1126.31   34.48
  -5  -4  12 1569.27   47.87
   5   4 -12 1669.91   50.80
  -5  -4  11  907.89   28.23
   5   4 -11  967.21   29.75
   5   4 -10  956.24   29.35
   5   4 -10  893.58   27.66
   5   4  -9 1168.14   35.60
   5   4  -9 1222.46   37.48
   5   4  -8  863.85   26.51
   5   4  -8  921.28   28.51
   5   4  -7 1335.36   40.83
   5   4  -7 1376.63   41.84
   5   4  -6  507.36   16.30
   5   4  -6  529.61   16.60
   5   4  -5  598.75   18.63
   5   4  -5  619.63   19.66
   5   4  -4  227.04    7.76
   5   4  -4  242.80    8.77
   5   4  -3 1516.90   46.03
   5   4  -3 1563.96   47.71
   5   4  -2 2869.65   86.63
   5   4  -2 2969.15   89.78
   5   4  -1 2597.46   78.42
   5   4  -1 2586.16   78.21
   5   4   0 2828.65   85.46
   5   4   0 2765.01   83.46
   5   4   1  213.78    7.59
   5   4   1  218.16    7.46
  -5  -4  -3 2178.68   65.86
   5   4   3 2416.67   72.99
  -5  -4  -4  847.36   26.01
   5   4   4  953.32   29.18
  -5  -4  -5  436.02   13.89
   5   4   5  489.37   15.39
  -5  -4  -6   42.91    3.55
   5   4   6   59.76    4.13
  -5  -4  -7  295.06    9.94
   5   4   7  353.18   11.88
   5   5 -14   15.24    3.92
   5   5 -14    8.16    3.30
   5   5 -13   -0.62    3.06
   5   5 -13    7.16    3.51
   5   5 -12   46.99    4.21
   5   5 -12   44.74    3.32
   5   5 -11   70.90    3.67
   5   5 -11   72.09    4.58
   5   5 -10  143.65    5.51
   5   5 -10  149.57    6.05
   5   5  -9   14.56    2.72
   5   5  -9   15.78    3.53
   5   5  -8   10.69    2.61
   5   5  -8   10.75    3.65
   5   5  -6   50.15    3.74
   5   5  -6   49.19    3.27
   5   5  -5   23.54    2.93
   5   5  -5   26.05    3.79
   5   5  -4   39.25    3.60
   5   5  -4   34.82    3.03
   5   5  -3    8.76    2.49
   5   5  -3    6.23    3.19
   5   5  -2   15.64    2.57
   5   5  -2   14.48    3.37
   5   5  -1    4.91    2.57
   5   5  -1    5.68    3.04
   5   5   0    2.74    2.51
   5   5   0    3.86    3.02
  -5  -5  -1    1.18    2.62
   5   5   1   -0.37    2.69
  -5  -5  -2   11.94    2.94
   5   5   2   16.90    2.94
  -5  -5  -3    8.12    2.99
   5   5   3    8.81    3.06
  -5  -5  -4   11.42    3.14
   5   5   4   10.16    3.35
  -5  -5  -5   13.06    3.00
   5   5   5    9.82    3.59
  -5  -5  -6   14.52    3.47
   5   5   6   15.35    4.41
   5   6 -14  188.33    7.32
   5   6 -14  184.25    6.80
   5   6 -13  378.87   12.17
   5   6 -13  377.48   12.48
   5   6 -12  256.06    8.61
   5   6 -12  280.13    9.75
   5   6 -11  371.26   11.90
   5   6 -11  372.62   12.22
   5   6 -10 1004.80   30.68
   5   6 -10 1045.19   32.21
   5   6  -9  753.02   23.18
   5   6  -9  727.67   22.85
   5   6  -8 1718.66   52.06
   5   6  -8 1618.97   49.34
   5   6  -7  727.89   22.44
   5   6  -7  707.07   22.17
   5   6  -6  605.19   19.24
   5   6  -5    8.37    2.78
   5   6  -5    7.20    3.49
   5   6  -4  201.24    7.47
   5   6  -4  213.57    7.50
   5   6  -3  287.09    9.75
   5   6  -3  297.34    9.96
   5   6  -2  166.66    6.48
   5   6  -2  176.66    6.58
   5   6  -1  116.05    4.81
   5   6  -1  102.56    4.81
  -5  -6   0  526.27   16.58
   5   6   0  571.85   17.92
  -5  -6  -1  919.24   28.20
   5   6   1 1029.75   31.56
  -5  -6  -2 1276.69   38.84
   5   6   2 1359.81   41.39
  -5  -6  -3  498.49   15.76
   5   6   3  552.63   17.41
  -5  -6  -4  638.04   19.79
   5   6   4  712.53   22.17
  -5  -6  -5  227.07    8.03
   5   6   5  241.50    8.76
   5   7 -13   14.89    3.16
   5   7 -13    8.16    4.03
   5   7 -12   -0.86    3.00
   5   7 -12   -3.52    3.93
   5   7 -11   41.02    3.26
   5   7 -11   51.41    4.35
   5   7 -10   11.40    2.56
   5   7 -10    8.39    3.99
   5   7  -9    3.67    3.87
   5   7  -9    4.63    2.82
   5   7  -8   46.44    4.30
   5   7  -8   54.64    3.49
   5   7  -7   60.30    3.37
   5   7  -7   67.69    4.84
   5   7  -5   44.59    4.22
   5   7  -5   56.35    3.68
   5   7  -4   10.45    3.04
   5   7  -4   10.49    3.68
   5   7  -3    9.35    3.04
   5   7  -3    7.67    3.81
   5   7  -2    2.34    3.42
   5   7  -2   -1.29    3.01
  -5  -7   1    9.84    2.54
   5   7  -1   15.84    3.39
  -5  -7   0    5.99    2.92
   5   7   0    2.46    3.10
  -5  -7  -1    5.00    2.93
   5   7   1    8.96    3.14
  -5  -7  -2   -4.98    2.89
   5   7   2   -0.96    3.47
  -5  -7  -3    5.81    2.90
   5   7   3    3.01    3.63
  -5  -7  -4    0.03    3.23
   5   7   4    1.63    3.96
   5   8 -12   13.71    2.98
   5   8 -12   12.53    4.06
   5   8 -11   33.76    4.35
   5   8 -11   26.13    3.11
   5   8 -10   14.19    3.02
   5   8 -10   11.82    4.09
   5   8  -9  554.02   17.28
   5   8  -9  553.68   17.63
   5   8  -8   80.62    4.03
   5   8  -8   76.90    4.91
   5   8  -6  422.00   13.47
   5   8  -6  405.34   13.40
   5   8  -5 1409.26   42.93
   5   8  -5 1373.57   41.94
   5   8  -4 1620.02   49.20
   5   8  -4 1804.67   54.89
   5   8  -3 1504.96   45.79
   5   8  -3 1464.79   44.68
   5   8  -2 1062.88   32.62
  -5  -8   1  275.53    9.27
   5   8  -1  295.03    9.82
  -5  -8   0 1260.43   38.34
   5   8   0 1278.64   38.96
  -5  -8  -1 1024.38   31.30
   5   8   1 1031.97   31.62
  -5  -8  -2  799.59   24.53
   5   8   2  906.83   27.90
   5   9 -11   81.87    3.82
   5   9 -11   92.29    5.11
   5   9 -10   43.92    4.18
   5   9 -10   33.13    3.12
   5   9  -9   12.38    3.73
   5   9  -9    8.89    2.76
   5   9  -8   72.31    3.89
   5   9  -8   80.66    4.82
   5   9  -7   70.36    3.85
   5   9  -7   70.77    4.60
   5   9  -6    7.69    3.63
   5   9  -6   10.43    2.72
   5   9  -5   17.56    3.77
   5   9  -5   14.44    3.02
   5   9  -4   -4.46    3.81
   5   9  -4    1.85    3.19
   5   9  -3   37.67    3.58
   5   9  -3   40.98    4.12
  -5  -9   2   92.21    4.24
   5   9  -2   88.24    4.62
  -5  -9   1   66.00    3.90
   5   9  -1   62.34    4.36
  -5  -9   0    5.03    3.27
   5   9   0   10.56    3.57
   5  10  -9  112.16    4.74
   5  10  -9  102.24    5.50
   5  10  -7  380.61   12.17
   5  10  -7  376.10   12.58
   5  10  -6  684.49   21.06
   5  10  -6  727.09   22.79
   5  10  -5 1289.85   39.39
   5  10  -5 1192.84   36.55
   5  10  -4  645.74   20.14
   5  10  -4  638.12   20.19
   5  10  -3 1109.04   34.02
   5  10  -3 1049.28   32.10
  -6  10   3  160.01    6.70
   6 -10  -3  193.86    7.25
  -6  10   2  190.30    7.76
   6 -10  -2  225.62    8.00
  -6  10   1  546.33   17.59
   6 -10  -1  625.12   19.44
  -6  10   0  283.98   10.58
   6 -10   0  346.05   11.20
  -6  10  -1  177.30    7.53
   6 -10   1  213.40    7.53
  -6  10  -2   42.06    5.10
   6 -10   2   41.57    3.54
  -6  10  -3  223.27    9.01
   6 -10   3  238.46    8.10
  -6  10  -4  145.59    7.63
   6 -10   4  174.59    6.69
  -6   9   5   -2.16    4.31
   6  -9  -5    4.84    3.71
  -6   9   4    4.88    3.70
   6  -9  -4   -1.00    3.56
  -6   9   3    2.49    4.28
   6  -9  -3    1.21    3.38
  -6   9   2    9.16    4.16
   6  -9  -2    7.58    3.38
  -6   9   1    8.73    4.30
   6  -9  -1   20.45    3.30
  -6   9   0    6.87    4.54
   6  -9   0    2.72    2.99
  -6   9  -1   10.65    4.44
   6  -9   1    7.52    2.86
  -6   9  -2   -8.36    4.30
   6  -9   2    2.06    3.10
  -6   9  -3   22.99    4.59
   6  -9   3   23.44    3.14
  -6   9  -4   10.20    4.46
   6  -9   4   12.59    3.07
  -6   9  -5    0.62    4.37
   6  -9   5    2.91    2.88
  -6   8   7  612.04   19.24
   6  -8  -7  649.25   20.30
  -6   8   6  222.78    8.13
   6  -8  -6  247.78    8.68
  -6   8   5   64.00    4.48
   6  -8  -5   70.86    4.44
  -6   8   4   17.91    4.15
   6  -8  -4   29.64    3.84
  -6   8   3  112.91    5.61
   6  -8  -3  131.21    5.72
  -6   8   2  877.62   27.13
   6  -8  -2 1056.14   32.33
  -6   8   1   53.80    4.36
   6  -8  -1   79.10    4.16
  -6   8   0  115.21    6.07
   6  -8   0  142.37    5.46
  -6   8  -1  708.63   22.27
   6  -8   1  810.24   24.89
  -6   8  -2 1296.59   39.65
   6  -8   2 1509.33   45.76
  -6   8  -3 2157.42   65.44
   6  -8   3 2489.73   75.22
  -6   8  -4 1240.59   37.97
   6  -8   4 1401.25   42.56
  -6   8  -5 1166.52   35.97
   6  -8   5 1317.47   40.42
  -6   7   8   29.92    3.99
   6  -7  -8   32.84    4.16
  -6   7   7    5.07    3.83
   6  -7  -7    9.72    3.44
  -6   7   6   34.08    4.14
   6  -7  -6   37.04    4.08
  -6   7   5    0.27    3.79
   6  -7  -5    0.64    3.65
  -6   7   4   18.54    3.57
   6  -7  -4   24.97    3.60
  -6   7   3    3.25    3.30
   6  -7  -3    4.51    3.15
  -6   7   2   55.83    4.33
   6  -7  -2   62.33    3.80
  -6   7   1    7.11    3.62
   6  -7  -1   14.69    2.98
  -6   7   0    4.71    3.66
   6  -7   0    0.47    2.87
  -6   7  -1   11.89    3.69
   6  -7   1   13.89    2.64
  -6   7  -2   10.96    3.67
   6  -7   2   11.47    2.64
  -6   7  -3   56.70    3.91
   6  -7   3   63.23    3.30
  -6   7  -4    1.78    3.14
   6  -7   4    3.38    2.22
  -6   7  -5    6.37    2.16
  -6   6   9   49.15    4.15
   6  -6  -9   65.28    4.50
  -6   6   8  379.99   12.45
   6  -6  -8  464.93   14.93
  -6   6   7  262.36    9.16
   6  -6  -7  297.00   10.12
  -6   6   6  601.63   18.96
   6  -6  -6  711.20   22.15
  -6   6   5  797.16   24.71
   6  -6  -5  954.76   29.42
  -6   6   4 1698.10   51.59
   6  -6  -4 1990.70   60.35
  -6   6   3 4048.43  122.06
   6  -6  -3 4351.81  131.06
  -6   6   2  845.87   26.15
   6  -6  -2 1023.93   31.37
  -6   6   1  979.91   30.17
   6  -6  -1 1165.60   35.59
  -6   6   0 1139.63   34.89
   6  -6   0 1310.90   39.91
  -6   6  -1  975.14   29.91
   6  -6   1 1127.39   34.39
  -6   6  -2 1783.27   54.10
   6  -6   2 1992.86   60.34
  -6   6  -3  361.44   11.61
   6  -6   3  391.89   12.28
  -6   6  -4  600.84   18.68
   6  -6   4  594.38   18.34
  -6   5  10    0.07    4.33
   6  -5 -10    3.39    3.67
  -6   5   9   12.81    3.67
   6  -5  -9   16.74    3.82
  -6   5   8    6.28    3.51
   6  -5  -8    2.97    3.79
  -6   5   7   -1.80    3.49
   6  -5  -7   -3.80    3.54
  -6   5   6   19.00    3.45
   6  -5  -6   20.35    3.72
  -6   5   5   12.03    3.74
   6  -5  -5   10.48    3.10
  -6   5   4   66.77    4.20
   6  -5  -4   85.27    4.34
  -6   5   3   49.28    4.12
   6  -5  -3   50.82    3.76
  -6   5   2    0.63    3.08
   6  -5  -2    0.60    2.81
  -6   5   1   74.53    4.25
   6  -5  -1   92.97    4.48
  -6   5   0    3.68    3.08
   6  -5   0    4.79    2.68
  -6   5  -1    0.50    2.72
   6  -5   1    1.31    2.45
  -6   5  -2   14.68    2.72
   6  -5   2   17.18    2.52
  -6   5  -3    2.36    2.49
   6  -5   3    9.54    1.96
  -6   4  11 1099.22   33.92
   6  -4 -11 1256.17   38.28
  -6   4  10  698.92   22.04
   6  -4 -10  908.64   28.02
  -6   4   9  856.72   26.50
   6  -4  -9 1012.43   31.17
  -6   4   8  457.89   14.74
   6  -4  -8  551.24   17.55
  -6   4   7  327.91   10.94
   6  -4  -7  409.97   13.30
  -6   4   6  718.93   22.40
   6  -4  -6  819.81   25.36
  -6   4   5  999.64   30.76
   6  -4  -5 1101.85   33.75
  -6   4   4 2146.88   65.04
   6  -4  -4 2501.52   75.60
  -6   4   3 1239.25   37.87
   6  -4  -3 1441.79   43.94
  -6   4   2 1204.49   36.80
   6  -4  -2 1395.84   42.47
  -6   4   1 1078.09   33.00
   6  -4  -1 1189.42   36.27
  -6   4   0 1638.12   49.71
   6  -4   0 1877.33   56.85
  -6   4  -1 1875.41   56.75
   6  -4   1 2040.83   61.72
  -6   4  -2  868.68   26.57
   6  -4   2  936.36   28.61
  -6   3  12  155.14    6.84
   6  -3 -12  202.33    7.64
  -6   3  11   24.80    4.27
   6  -3 -11   38.07    4.07
  -6   3  10    5.91    4.10
   6  -3 -10    5.54    3.35
  -6   3   8   33.51    3.65
   6  -3  -8   42.02    3.71
  -6   3   7  273.83    9.37
   6  -3  -7  307.45   10.39
  -6   3   6   30.20    3.49
   6  -3  -6   40.01    3.34
  -6   3   5   38.81    3.48
   6  -3  -5   46.86    3.67
  -6   3   4  409.59   13.25
   6  -3  -4  444.89   14.18
  -6   3   3    1.76    3.03
   6  -3  -3    4.82    2.76
  -6   3   2  170.51    6.34
   6  -3  -2  188.66    6.72
  -6   3   1   55.44    3.46
   6  -3  -1   60.46    3.42
  -6   3   0    1.89    2.49
   6  -3   0    2.20    2.59
  -6   3  -1   -0.44    2.23
   6  -3   1    1.50    2.57
  -6   3  -2   23.27    2.14
   6  -3   2   18.86    2.24
   6  -3   3  257.43    8.15
   6  -3   3  265.58    8.49
  -6   2  12  713.33   22.40
   6  -2 -12  845.69   26.09
  -6   2  11  596.26   19.06
   6  -2 -11  693.63   21.64
  -6   2  10 1232.44   37.86
   6  -2 -10 1484.37   45.18
  -6   2   9 1059.67   32.92
   6  -2  -9 1186.21   36.37
  -6   2   8  686.49   21.40
   6  -2  -8  830.19   25.64
  -6   2   7 1190.22   36.45
   6  -2  -7 1408.30   42.94
  -6   2   6  845.40   26.13
   6  -2  -6  977.56   30.07
  -6   2   5 2125.92   64.43
   6  -2  -5 2532.28   76.72
  -6   2   4  286.30    9.67
   6  -2  -4  307.95   10.29
  -6   2   3  503.92   15.96
   6  -2  -3  561.64   17.61
  -6   2   2  195.20    7.03
   6  -2  -2  204.46    7.07
  -6   2   1 1345.51   40.94
   6  -2  -1 1394.28   42.38
  -6   2   0 1920.85   58.14
   6  -2   0 1967.02   59.54
  -6   2  -1 1979.05   59.90
   6  -2   1 1797.57   54.51
   6  -2   2 1933.01   58.55
   6  -2   2 1798.40   54.41
   6  -2   3   87.62    3.29
   6  -2   3   96.21    3.73
   6  -2   4 2930.29   91.55
   6  -2   4 2969.71   92.52
  -6   1  13   -3.37    4.27
   6  -1 -13    4.79    4.00
  -6   1  12    5.41    4.02
   6  -1 -12   -3.75    3.54
  -6   1  11    0.48    3.89
   6  -1 -11    3.93    3.48
  -6   1  10    1.16    4.01
   6  -1 -10    4.10    3.46
  -6   1   9    6.82    3.88
   6  -1  -9    4.99    3.65
  -6   1   8   26.59    3.35
   6  -1  -8   33.46    3.29
  -6   1   7   30.85    3.64
   6  -1  -7   27.54    3.28
  -6   1   6   32.81    3.60
   6  -1  -6   36.27    3.09
  -6   1   5   87.40    4.55
   6  -1  -5   89.93    4.42
  -6   1   4    4.88    2.79
   6  -1  -4    8.26    2.42
  -6   1   3   88.50    4.21
   6  -1  -3   96.42    4.38
  -6   1   2   62.66    3.51
   6  -1  -2   74.01    3.61
  -6   1   1   19.80    2.52
   6  -1  -1   13.26    2.32
   6  -1   0   19.83    1.96
   6  -1   0   19.83    2.59
   6  -1   1    9.62    1.83
   6  -1   1   10.89    2.40
   6  -1   2    9.89    1.84
   6  -1   2   16.64    2.41
   6  -1   3    1.44    2.22
   6  -1   3    3.02    1.61
   6  -1   4   68.58    3.00
   6  -1   4   68.75    2.83
  -6   0  13  297.31   10.35
   6   0 -13  328.65   11.05
  -6   0  12  297.39   10.54
   6   0 -12  338.18   11.30
  -6   0  11  754.64   23.62
   6   0 -11  904.61   27.99
  -6   0  10  185.07    7.28
   6   0 -10  211.07    7.69
  -6   0   9  233.25    8.45
   6   0  -9  241.87    8.49
  -6   0   8  236.88    8.45
   6   0  -8  258.67    8.98
  -6   0   7  304.87   10.18
   6   0  -7  309.67   10.38
  -6   0   6 3350.54  101.15
   6   0  -6 3653.32  110.30
  -6   0   5   53.68    3.49
   6   0  -5   58.73    3.95
  -6   0   4   61.72    3.51
   6   0  -4   58.74    3.61
  -6   0   3   68.48    3.77
   6   0  -3   79.54    3.87
  -6   0   2   93.98    4.28
   6   0  -2   98.85    4.31
   6   0  -1  450.49   14.23
   6   0  -1  475.38   14.83
   6   0   0    8.84    2.06
   6   0   0    7.61    2.33
   6   0   1  125.56    4.54
   6   0   1  129.52    5.00
   6   0   2   29.27    2.14
   6   0   2   30.94    2.68
   6   0   3 1372.95   41.66
   6   0   3 1332.62   40.56
   6   0   4 1595.11   48.41
   6   0   4 1482.97   45.14
   6   0   5 1861.26   56.77
   6   0   5 1863.30   56.87
  -6  -1  14   29.77    4.39
   6   1 -14   32.66    4.53
  -6  -1  13   55.81    4.52
   6   1 -13   67.14    4.28
  -6  -1  12   66.78    4.80
   6   1 -12   82.66    4.56
  -6  -1  11   11.50    3.47
   6   1 -11    5.38    3.54
  -6  -1  10   70.50    4.71
   6   1 -10   85.31    4.53
  -6  -1   9   85.50    4.64
   6   1  -9   94.59    4.71
  -6  -1   8   18.25    3.05
   6   1  -8   27.50    3.31
  -6  -1   7  169.99    6.54
   6   1  -7  189.71    6.94
  -6  -1   6   35.37    3.49
   6   1  -6   43.26    3.49
  -6  -1   5  320.80   10.70
   6   1  -5  303.01   10.19
  -6  -1   4    2.32    2.59
   6   1  -4    3.22    2.76
   6   1  -3   36.84    3.31
   6   1  -2    8.52    1.96
   6   1  -2   10.65    2.48
   6   1  -1  116.11    4.75
   6   1  -1  108.71    4.19
   6   1   0   90.94    3.70
   6   1   0   95.09    4.17
   6   1   1   50.46    2.70
   6   1   1   44.82    3.24
   6   1   2  216.07    7.21
   6   1   2  197.23    6.97
   6   1   3    2.33    2.19
   6   1   3    4.17    2.80
   6   1   4  149.78    5.28
   6   1   4  138.40    5.32
   6   1   5   22.16    3.21
   6   1   5   23.01    2.76
   6   1   6    1.31    2.57
   6   1   6    0.89    3.05
  -6  -2  14  151.86    6.80
   6   2 -14  184.38    7.28
  -6  -2  13  156.69    6.56
   6   2 -13  174.65    6.70
  -6  -2  12  353.61   11.89
   6   2 -12  402.27   13.12
  -6  -2  11   48.32    4.05
   6   2 -11   54.28    4.05
  -6  -2  10   34.65    3.66
   6   2 -10   33.80    3.29
  -6  -2   9   59.37    4.01
   6   2  -9   58.03    4.17
  -6  -2   8  431.36   13.98
   6   2  -8  460.84   14.78
  -6  -2   7 3363.58  101.41
   6   2  -7 3310.47   99.91
  -6  -2   6  309.94   10.29
   6   2  -6  312.74   10.53
  -6  -2   5 2384.00   72.20
   6   2  -5 2085.34   63.29
   6   2  -4 3608.77  108.76
   6   2  -4 3688.51  111.35
   6   2  -3 5974.55  179.70
   6   2  -3 5619.01  169.24
   6   2  -2 8097.82  243.43
   6   2  -2 8164.33  245.59
   6   2  -1 3814.13  114.96
   6   2  -1 3774.15  113.76
   6   2   0 3726.85  112.31
   6   2   0 3736.88  112.64
   6   2   1 2139.41   64.67
   6   2   1 1946.75   59.01
   6   2   2 1956.61   59.16
   6   2   2 1967.05   59.59
   6   2   3 1376.04   41.87
   6   2   3 1468.71   44.54
   6   2   4  944.67   28.85
   6   2   4  894.66   27.52
   6   2   5  327.54   10.55
   6   2   5  302.09   10.10
   6   2   6   26.67    4.03
   6   2   6   39.30    3.49
  -6  -3  14    1.25    4.39
   6   3 -14   12.57    4.07
  -6  -3  13    3.52    4.17
   6   3 -13    3.31    3.42
  -6  -3  12   11.45    4.01
   6   3 -12   12.65    3.42
  -6  -3  11    3.16    3.79
   6   3 -11   -0.72    3.51
  -6  -3  10   48.40    4.30
   6   3 -10   58.29    4.09
  -6  -3   9    5.93    3.57
   6   3  -9    3.70    3.67
  -6  -3   8   26.60    3.29
   6   3  -7   28.05    2.74
   6   3  -7   28.71    3.28
   6   3  -6   33.22    3.14
   6   3  -6   39.17    3.44
   6   3  -5   10.44    3.60
   6   3  -5    8.36    2.64
   6   3  -3    3.27    2.41
   6   3  -3    3.06    2.96
   6   3  -2   -1.04    2.27
   6   3  -2   -0.07    2.97
   6   3  -1   31.90    2.61
   6   3  -1   26.85    3.15
   6   3   0    8.15    2.42
   6   3   0    6.63    3.29
   6   3   1  167.85    5.99
   6   3   1  183.03    6.86
   6   3   2   11.94    2.57
   6   3   2    8.52    3.14
   6   3   3   48.46    3.20
   6   3   3   47.92    4.01
   6   3   5   11.02    3.30
   6   3   5    7.58    3.89
   6   3   6  108.97    5.13
   6   3   6  100.13    5.83
   6   4 -14  348.04   11.67
   6   4 -13  766.83   23.80
   6   4 -12  563.94   17.59
   6   4 -12  544.02   17.17
   6   4 -11  522.89   16.34
   6   4 -11  541.66   17.13
   6   4 -10 1041.87   31.81
   6   4 -10  999.09   30.76
   6   4  -9  803.30   24.94
   6   4  -9  796.20   24.47
   6   4  -8 1835.37   55.59
   6   4  -8 1875.09   57.00
   6   4  -7  184.62    6.79
   6   4  -7  196.21    7.26
   6   4  -6  247.39    8.51
   6   4  -6  240.85    8.58
   6   4  -5  109.85    4.55
   6   4  -5  105.89    5.13
   6   4  -4  607.94   19.01
   6   4  -4  575.49   18.17
   6   4  -3  826.87   25.48
   6   4  -3  812.14   25.17
   6   4  -2  651.35   20.22
   6   4  -2  636.26   19.91
   6   4  -1  710.25   21.97
   6   4  -1  701.18   21.84
   6   4   0  157.35    5.77
   6   4   0  145.58    5.90
   6   4   1 2044.55   61.85
   6   4   1 1974.85   59.85
   6   4   2 1493.73   45.35
   6   4   2 1399.91   42.63
   6   4   3 1065.58   32.57
   6   4   3 1006.43   30.90
   6   4   4  511.29   16.14
   6   4   4  484.45   15.45
   6   4   5   99.75    4.99
   6   4   5   85.43    5.48
   6   5 -13   27.77    3.16
   6   5 -13   37.59    4.16
   6   5 -12   52.46    3.48
   6   5 -12   50.90    4.07
   6   5 -11  193.78    7.25
   6   5 -11  195.01    6.71
   6   5 -10    2.52    2.76
   6   5 -10   -0.68    3.40
   6   5  -9    1.19    2.68
   6   5  -9    2.03    3.73
   6   5  -8  355.61   11.53
   6   5  -8  331.85   11.19
   6   5  -7    9.47    3.00
   6   5  -7   16.15    3.78
   6   5  -6   27.33    3.09
   6   5  -6   27.46    3.54
   6   5  -5   32.45    3.33
   6   5  -5   34.40    3.50
   6   5  -4    3.90    3.09
   6   5  -4   -3.80    2.86
   6   5  -3   19.59    3.13
   6   5  -3   26.32    3.60
   6   5  -2    1.15    2.97
   6   5  -2   -1.05    3.23
   6   5  -1   24.36    3.11
   6   5  -1   26.77    3.79
   6   5   0   43.89    3.36
   6   5   0   39.95    3.93
   6   5   1    2.46    2.96
   6   5   1    2.70    3.40
   6   5   2    7.67    3.12
   6   5   2    2.64    3.42
   6   5   3   -2.17    3.27
   6   5   3    2.27    3.54
   6   5   4   -2.88    3.99
   6   5   4    5.48    4.23
   6   6 -13  124.11    5.09
   6   6 -13  133.54    5.91
   6   6 -12  226.68    8.23
   6   6 -12  233.22    7.96
   6   6 -11  761.54   23.41
   6   6 -11  773.24   24.00
   6   6 -10  935.81   28.63
   6   6 -10  910.14   28.09
   6   6  -9 2354.29   71.09
   6   6  -9 2332.47   70.64
   6   6  -8 1631.44   49.40
   6   6  -8 1564.86   47.63
   6   6  -7 1398.25   42.61
   6   6  -7 1467.40   44.82
   6   6  -6 1243.59   37.98
   6   6  -6 1220.58   37.36
   6   6  -5 1860.23   56.43
   6   6  -5 1869.03   56.77
   6   6  -4 1616.07   49.14
   6   6  -4 1704.40   51.84
   6   6  -3  965.43   29.71
   6   6  -3  911.58   28.22
   6   6  -2  308.15   10.18
   6   6  -2  308.32   10.49
   6   6  -1   79.78    4.02
   6   6  -1   76.17    4.59
   6   6   0  917.19   28.21
   6   6   0  908.65   28.05
   6   6   1  476.96   15.17
   6   6   1  469.41   15.14
   6   6   2  191.08    7.11
   6   6   2  179.22    7.04
   6   6   3  150.61    6.25
   6   6   3  136.79    6.14
   6   7 -12   19.77    3.13
   6   7 -12   11.26    3.96
   6   7 -11    2.25    2.90
   6   7 -11   -0.14    3.60
   6   7 -10    0.35    2.48
   6   7 -10    2.41    3.54
   6   7  -9   81.56    3.74
   6   7  -9   84.50    4.80
   6   7  -8   40.44    2.84
   6   7  -8   32.72    4.28
   6   7  -7    4.47    3.07
   6   7  -7    1.94    3.58
   6   7  -6   54.96    3.61
   6   7  -6   62.49    4.36
   6   7  -5   46.88    3.68
   6   7  -5   44.63    4.22
   6   7  -4   42.50    3.37
   6   7  -4   50.41    4.57
   6   7  -3    8.09    3.17
   6   7  -3   10.52    3.75
   6   7  -2   -1.51    3.15
   6   7  -2   -5.72    3.73
   6   7  -1   31.01    3.71
   6   7  -1   30.71    3.91
   6   7   0    0.62    3.24
   6   7   0    5.47    3.75
   6   7   1   -4.77    3.42
   6   7   1   -6.68    3.85
   6   7   2    1.39    3.79
   6   7   2    4.60    3.93
   6   8 -11   90.89    4.17
   6   8 -11  107.76    5.81
   6   8 -10  520.26   16.25
   6   8 -10  513.34   16.31
   6   8  -9    5.53    2.87
   6   8  -9    0.38    3.63
   6   8  -8    3.75    2.82
   6   8  -8    6.51    3.72
   6   8  -7   61.05    3.82
   6   8  -7   49.53    4.23
   6   8  -6  224.81    8.21
   6   8  -6  232.92    8.21
   6   8  -5  723.61   22.46
   6   8  -5  712.97   22.29
   6   8  -4  222.55    7.91
   6   8  -4  220.84    8.38
   6   8  -3  294.44    9.92
   6   8  -3  286.28   10.16
   6   8  -2   73.66    4.35
   6   8  -2   68.99    5.04
   6   8  -1  819.40   25.28
   6   8  -1  820.43   25.42
   6   8   0  455.59   14.57
   6   8   0  483.07   15.62
   6   9  -8    7.36    2.84
   6   9  -8    0.49    3.71
   6   9  -6    3.85    3.43
   6   9  -6    4.96    4.05
   6   9  -5    1.59    3.32
   6   9  -5    1.62    4.43
   6   9  -4   43.03    3.57
   6   9  -4   42.81    4.48
   6   9  -3   16.93    3.79
   6   9  -3   16.69    4.24
   6   9  -2   14.50    4.01
   6   9  -2   12.69    4.81
  -7   9   3   15.46    4.77
   7  -9  -3   22.54    3.93
  -7   9   2   28.90    4.90
   7  -9  -2   36.24    3.79
  -7   9   1  -11.43    4.55
   7  -9  -1    1.73    3.27
  -7   9   0    2.22    4.79
   7  -9   0    5.14    3.33
  -7   9  -1   -3.82    5.08
   7  -9   1   -1.05    3.33
  -7   9  -2    9.78    5.36
   7  -9   2   14.41    3.58
  -7   8   5  141.70    6.49
   7  -8  -5  180.50    7.16
  -7   8   4  122.04    6.06
   7  -8  -4  158.56    6.30
  -7   8   3  390.26   12.82
   7  -8  -3  450.01   14.36
  -7   8   2   64.34    5.37
   7  -8  -2   79.30    4.51
  -7   8   1   24.70    4.75
   7  -8  -1   17.81    3.51
  -7   8   0    4.55    4.62
   7  -8   0   12.74    3.51
  -7   8  -1   65.25    5.52
   7  -8   1   70.22    4.07
  -7   8  -2  257.76    9.71
   7  -8   2  308.55   10.22
  -7   8  -3   56.67    4.85
   7  -8   3   64.39    4.05
  -7   8  -4    3.41    4.38
   7  -8   4  255.15    8.52
  -7   7   7    8.96    4.38
   7  -7  -7    1.84    3.58
  -7   7   6   -2.15    3.77
   7  -7  -6    0.73    3.63
  -7   7   5    0.89    3.89
   7  -7  -5    1.28    3.30
  -7   7   4   15.25    3.85
   7  -7  -4   20.99    3.47
  -7   7   3  124.96    5.66
   7  -7  -3  158.51    6.10
  -7   7   2    2.26    3.83
   7  -7  -2    6.53    3.42
  -7   7   1    0.89    4.37
   7  -7  -1   -0.72    3.15
  -7   7   0    8.55    4.21
   7  -7   0   -2.02    3.04
  -7   7  -1   -2.61    4.25
   7  -7   1    2.98    3.01
  -7   7  -2   24.79    4.22
   7  -7   2   24.75    3.09
  -7   7  -3    9.81    3.92
   7  -7   3    9.16    2.82
  -7   7  -4   -3.80    3.31
   7  -7   4    6.53    2.18
  -7   6   8   20.94    3.92
   7  -6  -8   34.78    4.13
  -7   6   7    4.07    3.62
   7  -6  -7   15.31    4.10
  -7   6   6  204.72    7.62
   7  -6  -6  259.28    9.00
  -7   6   5  463.88   14.94
   7  -6  -5  579.86   18.20
  -7   6   4 1477.55   45.03
   7  -6  -4 1798.24   54.52
  -7   6   3  317.79   10.86
   7  -6  -3  397.37   12.74
  -7   6   2  655.46   20.62
   7  -6  -2  737.78   22.79
  -7   6   1  846.78   26.32
   7  -6  -1  937.58   28.70
  -7   6   0 1175.69   36.10
   7  -6   0 1377.81   41.92
  -7   6  -1 1299.76   39.67
   7  -6   1 1499.81   45.53
  -7   6  -2  453.96   14.55
   7  -6   2  504.51   15.74
  -7   6  -3  497.55   15.76
   7  -6   3  484.19   15.07
  -7   5   9    2.21    3.67
   7  -5  -9    3.15    3.88
  -7   5   8   12.43    4.10
   7  -5  -8   22.48    3.89
  -7   5   7   16.03    3.63
   7  -5  -7   17.57    3.73
  -7   5   6    2.39    3.48
   7  -5  -6    0.82    3.41
  -7   5   5   -0.31    3.60
   7  -5  -5    9.96    3.87
  -7   5   4    7.57    3.97
   7  -5  -4    0.13    3.67
  -7   5   3   11.72    3.56
   7  -5  -3   13.92    3.22
  -7   5   2   24.10    3.55
   7  -5  -2   15.16    3.11
  -7   5   1   -0.13    3.05
   7  -5  -1    2.81    3.32
  -7   5   0    2.71    3.38
   7  -5   0    3.66    2.95
  -7   5  -1   -4.96    3.36
   7  -5   1    2.24    3.12
  -7   5  -2   41.10    3.44
   7  -5   2   42.69    3.07
  -7   4  10  336.56   11.22
   7  -4 -10  385.97   12.65
  -7   4   9  233.82    8.57
   7  -4  -9  289.72   10.02
  -7   4   8  127.01    5.72
   7  -4  -8  168.64    6.71
  -7   4   7  553.01   17.55
   7  -4  -7  585.72   18.46
  -7   4   6  491.13   15.75
   7  -4  -6  582.10   18.33
  -7   4   5 1270.98   38.85
   7  -4  -5 1359.29   41.42
  -7   4   4  524.02   16.68
   7  -4  -4  605.06   19.01
  -7   4   3 1209.19   36.99
   7  -4  -3 1313.72   40.06
  -7   4   2 1085.23   33.26
   7  -4  -2 1269.59   38.69
  -7   4   1 2296.65   69.46
   7  -4  -1 2599.75   78.59
  -7   4   0 3061.93   92.45
   7  -4   0 3385.64  102.18
  -7   4  -1 1759.87   53.41
   7  -4   1 1885.36   57.13
  -7   4  -2 1511.91   45.96
   7  -4   2 1486.46   45.12
   7  -4   3  660.55   20.33
   7  -4   3  658.17   20.25
  -7   3  11    2.64    4.30
   7  -3 -11    4.54    3.71
  -7   3  10   16.10    3.86
   7  -3 -10    2.34    3.68
  -7   3   9   10.90    3.49
   7  -3  -9    8.26    3.76
  -7   3   8   10.66    3.40
   7  -3  -8    7.84    3.61
  -7   3   7   19.17    3.77
   7  -3  -7   31.21    3.59
  -7   3   6   20.28    3.38
   7  -3  -6   18.18    3.34
  -7   3   5  107.97    5.02
   7  -3  -5  127.52    5.33
  -7   3   4    2.86    3.23
   7  -3  -4    1.85    2.99
  -7   3   3  138.38    5.78
   7  -3  -3  151.99    5.85
  -7   3   2   32.26    3.36
   7  -3  -2   36.73    3.22
  -7   3   1    2.72    3.06
   7  -3  -1   -7.43    3.09
  -7   3   0   28.62    3.13
   7  -3   0   37.14    3.20
  -7   3  -1  120.60    4.83
   7  -3   1  120.71    4.93
   7  -3   2  203.64    6.77
   7  -3   2  206.14    7.04
   7  -3   3  174.13    5.78
   7  -3   3  176.92    5.98
  -7   2  11  428.49   14.10
   7  -2 -11  561.52   17.66
  -7   2  10  333.47   11.33
   7  -2 -10  386.84   12.74
  -7   2   9  474.33   15.25
   7  -2  -9  565.79   17.92
  -7   2   8  905.91   28.01
   7  -2  -8 1069.91   32.83
  -7   2   7 1012.72   31.14
   7  -2  -7 1161.85   35.61
  -7   2   6 1537.16   46.82
   7  -2  -6 1696.57   51.57
  -7   2   5  521.44   16.51
   7  -2  -5  613.89   19.33
  -7   2   4  310.28   10.40
   7  -2  -4  346.06   11.31
  -7   2   3  341.76   11.30
   7  -2  -3  326.90   10.73
  -7   2   2  594.36   18.58
   7  -2  -2  621.53   19.35
  -7   2   1 1071.64   32.80
   7  -2  -1 1134.07   34.65
  -7   2   0  622.18   19.30
   7  -2   0  602.34   18.74
   7  -2   1  504.45   15.68
   7  -2   1  559.74   17.50
   7  -2   2  311.67    9.91
   7  -2   2  331.32   10.69
   7  -2   3 1316.81   40.10
   7  -2   3 1327.00   40.41
  -7   1  12   64.91    5.31
   7  -1 -12   76.66    4.65
  -7   1  11   24.35    4.27
   7  -1 -11   36.89    3.96
  -7   1  10   72.10    4.55
   7  -1 -10   81.82    5.06
  -7   1   9   68.61    4.19
   7  -1  -9   70.82    4.53
  -7   1   8   13.45    3.29
   7  -1  -8   16.40    3.42
  -7   1   7   29.33    3.44
   7  -1  -7   28.65    3.61
  -7   1   6  117.71    5.35
   7  -1  -6  118.71    5.18
  -7   1   5    0.00    3.09
   7  -1  -5    6.17    2.98
  -7   1   4    9.29    3.02
   7  -1  -4   15.96    2.61
  -7   1   3   26.26    2.95
   7  -1  -3   26.40    3.02
  -7   1   2    8.79    2.79
   7  -1  -2   10.59    2.71
   7  -1  -1    9.36    2.58
   7  -1   0   13.22    2.89
   7  -1   0   11.47    2.22
   7  -1   1  100.02    4.01
   7  -1   1  106.43    4.52
   7  -1   2  188.92    6.67
   7  -1   2  178.18    6.06
   7  -1   3   -1.50    2.14
   7  -1   3    2.41    2.69
   7  -1   4   91.76    3.59
   7  -1   4   92.18    3.83
  -7   0  12  663.05   20.90
   7   0 -12  793.17   24.54
  -7   0  11  491.77   16.02
   7   0 -11  611.71   19.21
   7   0 -10  534.20   17.25
  -7   0   9  856.20   26.40
   7   0  -9  959.82   29.59
  -7   0   8 1784.31   54.12
   7   0  -8 2060.34   62.44
  -7   0   7 3308.46   99.84
   7   0  -7 3441.25  103.85
  -7   0   6 1195.60   36.57
   7   0  -6 1307.53   39.97
  -7   0   5 1132.28   34.62
   7   0  -5 1130.60   34.62
  -7   0   4 1612.68   48.99
   7   0  -4 1726.96   52.45
  -7   0   3 1672.33   50.80
   7   0  -3 1674.67   50.86
   7   0  -2 1467.20   44.66
   7   0  -2 1427.30   43.35
   7   0  -1  165.74    6.14
   7   0  -1  156.47    5.64
   7   0   0   99.62    4.14
   7   0   0  107.46    4.74
   7   0   1   84.14    3.65
   7   0   1   88.22    4.22
   7   0   2  201.57    6.85
   7   0   2  195.33    7.02
   7   0   3  172.54    6.17
   7   0   3  175.60    6.03
   7   0   4  643.06   19.97
   7   0   4  671.16   20.66
   7   0   5  347.96   11.11
   7   0   5  372.10   11.89
  -7  -1  13   10.10    4.07
  -7  -1  12    4.77    4.22
   7   1 -12    7.40    3.42
  -7  -1  11    4.36    4.01
   7   1 -11   -1.44    3.29
  -7  -1  10    2.90    3.55
   7   1 -10    8.23    3.35
  -7  -1   9   21.86    3.30
   7   1  -9   23.70    3.54
  -7  -1   8   16.64    3.14
   7   1  -8   15.69    3.52
  -7  -1   7   66.50    3.88
   7   1  -7   69.07    4.25
  -7  -1   6    7.20    2.99
   7   1  -6    9.55    2.99
  -7  -1   5   57.74    3.63
   7   1  -5   58.65    3.73
   7   1  -4   27.98    3.11
   7   1  -3    1.51    2.69
   7   1  -3   -0.03    2.19
   7   1  -2   14.50    2.35
   7   1  -2   13.83    3.06
   7   1  -1   -1.81    2.25
   7   1  -1   -0.81    2.80
   7   1   0   -2.33    2.29
   7   1   0   -0.27    2.76
   7   1   1    3.42    2.34
   7   1   1    3.72    3.01
   7   1   2   -2.17    2.55
   7   1   2    3.97    3.06
   7   1   3   -0.41    2.53
   7   1   3    1.23    3.21
   7   1   4   18.35    2.86
   7   1   4   20.14    3.51
   7   1   5   13.98    3.70
   7   1   5   13.67    3.18
  -7  -2  13  403.67   13.54
   7   2 -13  417.94   13.54
  -7  -2  12   94.70    5.43
   7   2 -12  104.09    5.01
  -7  -2  11    5.90    3.64
   7   2 -11    5.32    3.53
  -7  -2  10    1.06    3.93
   7   2 -10    5.05    3.45
  -7  -2   9   25.10    3.54
   7   2  -9   24.63    3.73
  -7  -2   8  145.20    5.79
   7   2  -8  148.79    6.09
  -7  -2   7  328.56   10.87
   7   2  -7  351.62   11.61
   7   2  -6  147.48    6.13
   7   2  -5   98.19    4.50
   7   2  -5  109.48    4.87
   7   2  -4  397.28   12.81
   7   2  -4  429.54   13.88
   7   2  -3 1200.65   36.58
   7   2  -3 1228.55   37.55
   7   2  -2  520.76   16.29
   7   2  -2  579.00   18.24
   7   2  -1 1136.44   34.61
   7   2  -1 1135.76   34.74
   7   2   0 1858.96   56.22
   7   2   0 1893.47   57.48
   7   2   1 1614.31   48.93
   7   2   1 1591.57   48.39
   7   2   2  948.69   29.00
   7   2   2  919.69   28.28
   7   2   3 2145.76   64.86
   7   2   3 2049.72   62.12
  -7  -3  13   26.67    4.70
   7   3 -13   26.12    4.14
  -7  -3  12   80.81    5.22
   7   3 -12   83.16    4.66
  -7  -3  11   35.74    3.95
   7   3 -11   47.15    3.95
  -7  -3  10   34.40    4.00
   7   3 -10   30.70    3.69
   7   3  -9    2.22    3.37
   7   3  -8   19.90    3.43
   7   3  -8   19.40    3.19
   7   3  -7    5.89    3.18
   7   3  -7    3.11    2.98
   7   3  -6    3.58    2.97
   7   3  -6    2.44    3.24
   7   3  -5    3.68    2.86
   7   3  -5    3.57    3.10
   7   3  -4   -2.94    2.57
   7   3  -4    3.91    3.13
   7   3  -3    1.42    2.36
   7   3  -3   -0.10    3.10
   7   3  -2    7.36    2.44
   7   3  -2    9.97    3.11
   7   3  -1   12.80    2.77
   7   3  -1   18.26    3.25
   7   3   0    2.65    2.62
   7   3   0   -3.46    3.30
   7   3   1    2.42    2.60
   7   3   1   -1.33    3.37
   7   3   2    1.41    3.53
   7   3   2    2.40    2.88
   7   3   3   14.44    3.14
   7   3   3   16.24    3.89
   7   3   4    2.26    3.51
   7   3   4    3.02    4.44
   7   4 -11  824.53   25.31
   7   4 -11  816.26   25.25
   7   4 -10 1218.30   37.05
   7   4 -10 1258.75   38.46
   7   4  -9 1809.15   54.88
   7   4  -9 1822.12   55.33
   7   4  -8  670.46   20.89
   7   4  -8  698.69   21.84
   7   4  -7  806.92   24.91
   7   4  -7  873.43   26.97
   7   4  -6  770.40   23.86
   7   4  -6  797.84   24.79
   7   4  -5 1068.39   32.73
   7   4  -5 1023.37   31.52
   7   4  -4 1386.38   42.22
   7   4  -4 1395.52   42.59
   7   4  -3  418.51   13.52
   7   4  -3  399.53   12.84
   7   4  -2  656.21   20.37
   7   4  -2  651.45   20.34
   7   4  -1  534.37   16.82
   7   4  -1  513.27   16.27
   7   4   0 1264.06   38.52
   7   4   0 1245.28   38.01
   7   4   1 1042.10   31.93
   7   4   1 1006.43   30.84
   7   4   2 1325.05   40.34
   7   4   2 1216.10   37.10
   7   4   3  584.48   18.38
   7   4   3  535.57   17.03
   7   5 -12   18.14    2.95
   7   5 -12   14.01    3.76
   7   5 -11    6.02    2.80
   7   5 -11    4.11    3.60
   7   5 -10   16.38    2.79
   7   5 -10   16.23    3.61
   7   5  -9  181.92    6.82
   7   5  -9  177.57    6.93
   7   5  -8   58.54    3.86
   7   5  -8   63.09    4.34
   7   5  -7    4.36    2.97
   7   5  -7    2.79    3.51
   7   5  -6   91.90    4.26
   7   5  -6   88.98    4.80
   7   5  -5   23.78    3.16
   7   5  -5   22.96    4.05
   7   5  -4   57.08    3.64
   7   5  -4   59.73    4.26
   7   5  -3   -1.27    2.59
   7   5  -3    3.31    3.48
   7   5  -1   94.79    4.35
   7   5  -1   81.37    4.56
   7   5   0    4.30    3.26
   7   5   0   -0.99    3.47
   7   5   1   38.85    4.01
   7   5   1   46.04    3.80
   7   5   2    2.71    3.62
   7   5   2    2.22    4.10
   7   6 -11   95.44    4.41
   7   6 -11   87.57    4.75
   7   6 -10  363.17   11.96
   7   6 -10  400.84   12.78
   7   6  -8  537.73   16.97
   7   6  -8  518.16   16.52
   7   6  -7  577.16   18.27
   7   6  -7  557.28   17.48
   7   6  -6 1432.16   43.59
   7   6  -6 1438.66   43.92
   7   6  -5 1829.65   55.49
   7   6  -5 1808.08   54.91
   7   6  -4 1034.79   31.72
   7   6  -4 1080.69   33.22
   7   6  -3  728.64   22.75
   7   6  -3  736.52   22.85
   7   6  -2  268.10    9.35
   7   6  -2  268.03    9.18
   7   6  -1 1289.08   39.29
   7   6  -1 1265.62   38.60
   7   6   0  689.22   21.40
   7   6   0  689.57   21.51
   7   6   1  503.61   16.01
   7   6   1  485.51   15.60
   7   7 -10   15.43    2.60
   7   7 -10   12.13    4.24
   7   7  -9    2.08    3.18
   7   7  -9    2.59    4.05
   7   7  -8   12.30    2.97
   7   7  -8   12.96    3.93
   7   7  -7   19.39    3.28
   7   7  -7   19.36    3.97
   7   7  -6    2.73    3.06
   7   7  -6   -2.69    4.24
   7   7  -5   24.90    3.48
   7   7  -5   15.06    3.93
   7   7  -4   -0.03    3.31
   7   7  -4    3.69    3.93
   7   7  -3   27.10    4.22
   7   7  -3   27.34    3.66
   7   7  -2   87.17    5.16
   7   7  -2   99.42    4.61
   7   7  -1   20.00    3.55
   7   7  -1   19.34    4.31
   7   8  -7  561.18   17.80
   7   8  -7  613.33   19.23
   7   8  -6  671.09   20.85
   7   8  -6  611.66   19.36
   7   8  -5  322.91   11.12
   7   8  -5  304.28   10.26
   7   8  -4  197.33    7.80
   7   8  -4  188.97    7.07
  -8   7   5   32.15    4.63
   8  -7  -5   42.78    4.01
  -8   7   4   51.11    4.90
   8  -7  -4   60.28    4.48
  -8   7   3    3.75    4.51
   8  -7  -3    3.57    3.67
  -8   7   2   30.36    4.96
   8  -7  -2   33.19    3.74
  -8   7   1    7.66    4.33
   8  -7  -1    2.53    3.56
  -8   7   0    0.76    4.64
   8  -7   0    3.95    3.54
  -8   7  -1   19.65    4.79
   8  -7   1   19.38    3.82
  -8   7  -2    6.69    4.91
   8  -7   2   -0.81    3.66
  -8   6   7   50.42    4.46
   8  -6  -7   68.93    4.99
  -8   6   6  199.67    7.88
   8  -6  -6  240.59    8.64
  -8   6   5  327.00   11.14
   8  -6  -5  394.74   12.84
  -8   6   4   57.64    4.52
   8  -6  -4   61.85    4.59
  -8   6   3  219.49    8.24
   8  -6  -3  259.13    8.96
  -8   6   2  263.43    9.40
   8  -6  -2  300.66   10.13
  -8   6   1  436.08   14.19
   8  -6  -1  550.78   17.32
  -8   6   0  750.65   23.51
   8  -6   0  874.78   26.89
  -8   6  -1  140.08    6.53
   8  -6   1  149.06    6.02
  -8   6  -2  402.16   13.23
   8  -6   2  416.37   13.30
   8  -6   3  395.25   12.61
   8  -6   3  423.41   13.42
  -8   5   8    0.35    4.07
   8  -5  -8    4.90    3.96
  -8   5   7    5.20    4.05
   8  -5  -7    0.59    3.94
  -8   5   6   -7.66    3.62
   8  -5  -6   -1.10    3.79
  -8   5   5   39.62    3.88
   8  -5  -5   50.81    4.06
  -8   5   4    0.72    3.57
   8  -5  -4    3.33    3.50
  -8   5   3   -0.48    3.71
   8  -5  -3    0.69    3.77
  -8   5   2    3.05    3.90
   8  -5  -2   -0.27    3.02
  -8   5   1   -1.82    4.14
   8  -5  -1    1.41    3.53
  -8   5   0   18.51    4.01
   8  -5   0   29.39    3.71
  -8   5  -1   -0.56    3.92
   8  -5   1   -1.48    3.51
   8  -5   2   40.72    3.59
   8  -5   3    4.02    2.70
   8  -5   3    7.55    2.81
  -8   4   9   56.30    4.52
   8  -4  -9   68.15    4.84
  -8   4   8  227.25    8.16
   8  -4  -8  320.31   10.86
  -8   4   7  159.20    6.30
   8  -4  -7  201.16    7.40
  -8   4   6  117.33    5.35
   8  -4  -6  136.58    5.83
  -8   4   5  114.76    5.34
   8  -4  -5  131.60    5.89
  -8   4   4  166.32    6.63
   8  -4  -4  185.53    7.07
  -8   4   3  136.02    5.80
   8  -4  -3  151.35    5.87
  -8   4   2  724.07   22.67
   8  -4  -2  819.66   25.19
  -8   4   1 1169.42   35.80
   8  -4  -1 1329.64   40.45
  -8   4   0  775.38   24.05
   8  -4   0  844.84   26.00
  -8   4  -1 1040.02   31.93
   8  -4   1 1063.35   32.55
   8  -4   2  543.40   16.90
   8  -4   2  575.40   17.89
   8  -4   3  852.51   26.26
   8  -4   3  833.85   25.71
  -8   3   9   22.01    4.01
   8  -3  -9   26.75    3.94
  -8   3   8    1.93    3.86
   8  -3  -8    1.07    3.86
  -8   3   7   18.59    3.95
   8  -3  -7   18.35    3.67
  -8   3   6   15.42    3.65
   8  -3  -6   18.81    3.56
  -8   3   5   -0.79    3.61
   8  -3  -5    0.72    3.31
  -8   3   4    0.55    3.40
   8  -3  -4   10.12    3.68
  -8   3   3   14.97    3.40
   8  -3  -3   12.69    3.47
  -8   3   2   10.04    3.37
   8  -3  -2   14.54    3.00
  -8   3   1    7.50    3.68
   8  -3  -1    3.13    3.10
  -8   3   0   52.89    3.79
   8  -3   0   53.57    3.89
   8  -3   1  161.32    5.78
   8  -3   1  176.49    6.61
   8  -3   2  212.82    7.19
   8  -3   2  225.57    7.80
   8  -3   3   28.68    2.63
   8  -3   3   21.01    2.83
  -8   2  10  147.54    6.07
   8  -2 -10  185.57    7.21
  -8   2   9  917.64   28.28
   8  -2  -9 1097.31   33.63
  -8   2   8  717.43   22.31
   8  -2  -8  848.21   26.29
  -8   2   7 1131.26   34.65
   8  -2  -7 1267.70   38.75
  -8   2   6  863.37   26.70
   8  -2  -6  939.75   28.95
  -8   2   5  989.19   30.42
   8  -2  -5 1058.26   32.47
  -8   2   4  385.40   12.54
   8  -2  -4  447.94   14.44
  -8   2   3 1268.90   38.73
   8  -2  -3 1371.49   41.75
  -8   2   2 1266.77   38.71
   8  -2  -2 1354.80   41.26
  -8   2   1  736.15   22.84
   8  -2  -1  823.62   25.46
   8  -2   1  492.62   15.36
   8  -2   1  546.67   17.25
   8  -2   2 2191.00   66.39
   8  -2   2 2099.30   63.53
   8  -2   3 1450.17   44.20
   8  -2   3 1496.06   45.65
  -8   1  10   -2.87    3.84
   8  -1 -10   -0.14    3.91
  -8   1   9    6.85    3.43
   8  -1  -9    2.92    3.75
  -8   1   8   40.65    3.60
   8  -1  -8   44.59    3.90
  -8   1   7    0.41    3.14
   8  -1  -7   -1.88    3.35
  -8   1   6    4.46    3.13
   8  -1  -6    3.13    3.34
  -8   1   5   -2.07    3.23
   8  -1  -5   -2.65    2.69
  -8   1   4   39.52    3.60
   8  -1  -4   46.40    3.57
  -8   1   3   -3.33    3.15
   8  -1  -3   -1.80    2.91
   8  -1  -2   22.26    2.45
   8  -1  -2   21.30    3.20
   8  -1  -1   49.71    3.20
   8  -1  -1   57.71    3.68
   8  -1   0   67.98    3.48
   8  -1   0   81.72    4.27
   8  -1   1  267.78    9.03
   8  -1   1  252.95    8.34
   8  -1   2   17.94    2.81
   8  -1   2   17.97    3.02
   8  -1   3  149.12    5.49
   8  -1   3  156.16    6.05
   8  -1   4    5.28    2.92
   8  -1   4   -0.21    2.75
  -8   0  11   20.27    4.03
   8   0 -11   24.13    4.24
  -8   0  10  236.68    8.28
   8   0 -10  295.95   10.15
  -8   0   9  278.23    9.44
   8   0  -9  326.45   10.99
  -8   0   8 1093.03   33.46
   8   0  -8 1204.22   36.77
  -8   0   7  407.52   13.27
   8   0  -7  443.67   14.33
  -8   0   6 1081.21   33.13
   8   0  -6 1152.66   35.32
  -8   0   5 1226.00   37.47
   8   0  -5 1265.07   38.63
  -8   0   4 2171.33   65.72
   8   0  -4 2230.06   67.49
   8   0  -3 2233.54   67.54
   8   0  -3 2068.52   62.58
   8   0  -2  716.85   22.12
   8   0  -2  714.47   22.16
   8   0  -1  639.87   19.93
   8   0  -1  585.38   18.18
   8   0   0  345.90   11.34
   8   0   0  330.13   10.62
   8   0   1  223.75    7.85
   8   0   1  214.69    7.23
   8   0   2   11.74    3.06
   8   0   2   11.84    3.37
   8   0   3  263.66    9.16
   8   0   3  260.97    8.72
   8   0   4    9.64    3.41
   8   0   4    6.75    4.04
  -8  -1  11   -4.40    3.61
   8   1 -11    0.00    3.85
  -8  -1  10    7.76    3.20
   8   1 -10    7.76    3.83
  -8  -1   9   96.90    4.67
   8   1  -9  101.37    5.05
  -8  -1   8  167.05    6.33
   8   1  -8  178.81    6.95
  -8  -1   7   48.82    3.64
   8   1  -7   57.07    4.27
  -8  -1   6   -2.99    3.37
   8   1  -6    5.04    3.50
   8   1  -5    1.09    2.62
   8   1  -5    0.58    3.09
   8   1  -4    1.77    2.62
   8   1  -4    5.03    3.26
   8   1  -3    3.74    2.89
   8   1  -3    0.88    2.92
   8   1  -2    3.20    2.83
   8   1  -2   -2.49    3.07
   8   1  -1   15.83    2.84
   8   1  -1   13.31    3.07
   8   1   0   42.03    3.08
   8   1   0   48.98    3.63
   8   1   1   -3.67    2.92
   8   1   1    2.37    3.19
   8   1   2    3.90    2.93
   8   1   2    5.59    3.69
   8   1   3    2.32    3.09
   8   1   3    5.70    3.86
  -8  -2  11 1036.94   31.95
  -8  -2  10  923.23   28.34
   8   2 -10  973.28   29.96
  -8  -2   9 1126.14   34.43
   8   2  -9 1206.54   36.91
  -8  -2   8   38.01    3.25
   8   2  -8   35.00    3.97
   8   2  -7  220.00    7.82
   8   2  -7  234.10    8.33
   8   2  -6   79.68    4.22
   8   2  -6   76.45    4.54
   8   2  -5  294.61    9.94
   8   2  -5  288.90    9.60
   8   2  -4  507.50   15.98
   8   2  -4  485.36   15.46
   8   2  -3   18.23    2.83
   8   2  -3   21.14    3.13
   8   2  -2  365.64   11.78
   8   2  -2  361.20   11.78
   8   2  -1  718.03   22.21
   8   2  -1  719.05   22.21
   8   2   0  436.08   13.90
   8   2   0  399.68   12.81
   8   2   1  397.90   12.86
   8   2   1  429.96   13.76
   8   2   2 1333.40   40.58
   8   2   2 1210.04   36.97
   8   2   3  352.03   11.58
   8   2   3  323.66   11.15
   8   3 -11   61.83    3.79
   8   3 -11   50.58    4.55
   8   3 -10   92.96    4.63
   8   3 -10   95.48    5.15
   8   3  -9    4.27    2.68
   8   3  -9    3.13    3.51
   8   3  -8   79.31    4.25
   8   3  -8   70.57    4.53
   8   3  -7   20.71    3.39
   8   3  -7   29.72    3.73
   8   3  -6   34.09    3.32
   8   3  -6   33.44    3.83
   8   3  -5   11.41    2.84
   8   3  -5   10.08    3.25
   8   3  -4   11.76    3.04
   8   3  -4   13.88    3.14
   8   3  -3    5.81    2.91
   8   3  -3   10.26    3.42
   8   3  -2   -0.07    2.74
   8   3  -2    7.57    3.33
   8   3  -1   25.98    3.19
   8   3  -1   24.61    3.54
   8   3   0    8.41    3.52
   8   3   0   13.35    3.86
   8   3   1   26.12    4.12
   8   3   1   23.11    3.53
   8   3   2    4.45    3.97
   8   3   2    2.51    4.36
   8   4  -9  134.78    5.67
   8   4  -9  123.69    5.67
   8   4  -8  408.36   13.29
   8   4  -8  378.06   12.25
   8   4  -7  234.52    8.24
   8   4  -7  240.77    8.66
   8   4  -6  688.46   21.42
   8   4  -6  643.83   20.14
   8   4  -5  578.76   18.08
   8   4  -5  602.77   19.04
   8   4  -4  179.58    7.03
   8   4  -4  185.86    6.79
   8   4  -3  304.06   10.03
   8   4  -3  329.67   10.97
   8   4  -2  313.98   10.37
   8   4  -2  315.16   10.57
   8   4  -1  670.23   20.83
   8   4  -1  617.37   19.35
   8   4   0  546.23   17.24
   8   4   0  530.62   16.85
   8   4   1 1470.79   44.74
   8   4   1 1394.14   42.55
   8   5  -9    3.99    3.26
   8   5  -9   -2.32    4.26
   8   5  -8    0.27    3.36
   8   5  -8   -2.25    3.66
   8   5  -7    8.35    3.21
   8   5  -7   17.65    3.87
   8   5  -6    0.35    3.90
   8   5  -6   -4.27    3.07
   8   5  -5   28.90    4.03
   8   5  -5   21.80    3.38
   8   5  -4    6.73    2.90
   8   5  -4   -2.34    3.69
   8   5  -3   28.83    4.08
   8   5  -3   39.13    3.53
   8   5  -2  131.13    5.34
   8   5  -2  130.30    5.82
   8   5  -1    6.09    3.13
   8   5  -1   -0.70    3.76
   8   6  -8  124.41    6.15
   8   6  -8  111.80    4.93
   8   6  -7  557.96   17.78
   8   6  -7  579.49   18.19
   8   6  -6  743.58   23.01
   8   6  -6  720.33   22.58
   8   6  -5  463.31   15.13
   8   6  -5  461.58   14.64
   8   6  -4  451.99   14.69
   8   6  -4  489.85   15.57
   8   6  -3  194.75    7.52
   8   6  -3  188.17    7.10
  -9   5   5   13.59    4.56
   9  -5  -5   10.94    4.46
  -9   5   4   14.72    4.39
   9  -5  -4   24.26    4.39
  -9   5   3    6.47    4.35
   9  -5  -3    8.66    4.20
  -9   5   2    3.20    4.59
   9  -5  -2   -1.32    3.58
  -9   5   1    5.71    4.56
   9  -5  -1   10.97    3.69
  -9   5   0   -0.41    4.56
   9  -5   0    5.96    4.04
  -9   4   6  104.03    5.33
   9  -4  -6  141.66    6.40
  -9   4   5  200.34    7.74
   9  -4  -5  255.14    9.05
  -9   4   4   32.20    4.50
   9  -4  -4   39.75    4.05
  -9   4   3  349.13   11.67
   9  -4  -3  400.73   12.96
  -9   4   2  605.96   19.16
   9  -4  -2  679.75   21.17
  -9   4   1  614.27   19.46
   9  -4  -1  672.90   21.06
   9  -4   0  989.10   30.38
  -9   3   7   17.76    4.03
   9  -3  -7   22.52    4.49
  -9   3   6    1.87    3.53
   9  -3  -6    5.23    3.46
  -9   3   5    2.15    3.70
   9  -3  -5    1.45    3.94
  -9   3   4    1.35    3.87
   9  -3  -4    5.97    3.45
  -9   3   3    1.59    3.93
   9  -3  -3    0.62    3.73
  -9   3   2    3.39    4.22
   9  -3  -2   -1.21    3.45
   9  -3  -1   11.94    3.80
   9  -3   0    4.27    3.81
   9  -3   0    6.45    2.95
   9  -3   1   50.48    4.90
   9  -3   1   45.41    3.58
  -9   2   8  217.52    8.03
   9  -2  -8  266.64    9.39
  -9   2   7  390.19   12.68
   9  -2  -7  466.08   15.04
  -9   2   6  272.44    9.40
   9  -2  -6  362.59   12.00
  -9   2   5   84.95    4.45
   9  -2  -5  101.42    5.00
  -9   2   4  348.58   11.69
   9  -2  -4  380.99   12.48
  -9   2   3  277.05    9.61
   9  -2  -3  332.69   11.11
   9  -2  -1   33.77    3.53
   9  -2  -1   43.45    4.28
   9  -2   0   10.09    3.95
   9  -2   0   15.80    3.29
  -9   1   9   27.03    3.76
  -9   1   8    8.85    3.54
   9  -1  -8   11.62    3.92
  -9   1   7   -2.25    3.50
   9  -1  -7    4.18    3.66
  -9   1   6   34.68    3.84
   9  -1  -6   36.83    3.93
  -9   1   5    3.72    3.62
   9  -1  -5   -1.83    3.41
  -9   1   4   11.96    3.65
   9  -1  -4   12.23    3.41
   9  -1  -3    0.10    3.17
   9  -1  -3    6.92    3.72
   9  -1  -2    9.35    3.17
   9  -1  -2   16.62    3.69
   9  -1  -1    0.07    3.25
   9  -1  -1    5.08    3.18
   9  -1   0   81.29    4.72
   9  -1   0   73.00    3.99
   9  -1   1    8.56    3.23
   9  -1   1    4.87    3.96
  -9   0   9  120.83    5.25
   9   0  -9  135.07    6.20
  -9   0   8  188.28    7.18
   9   0  -8  207.06    7.77
  -9   0   7  334.25   11.20
   9   0  -7  347.08   11.54
  -9   0   6  496.83   15.80
   9   0  -6  460.26   14.80
   9   0  -4 2147.92   64.95
   9   0  -4 1964.62   59.43
   9   0  -3 1696.17   51.41
   9   0  -3 1597.57   48.51
   9   0  -1 1255.73   38.27
   9   0  -1 1331.17   40.52
   9   0   0 1759.50   53.42
   9   0   0 1667.86   50.61
   9   0   1 1001.91   30.73
   9   0   1 1039.19   31.95
  -9  -1   9    1.87    3.44
   9   1  -9    7.61    4.14
  -9  -1   8    1.77    3.67
   9   1  -8   -3.02    3.92
   9   1  -7  121.43    5.57
   9   1  -7  109.26    5.33
   9   1  -6   -1.59    2.90
   9   1  -6    4.73    3.66
   9   1  -5    0.14    2.87
   9   1  -5    0.32    3.52
   9   1  -4    3.44    2.83
   9   1  -4    0.69    3.44
   9   1  -3    2.45    2.83
   9   1  -3    0.59    3.35
   9   1  -2   15.91    3.32
   9   1  -2   18.30    3.77
   9   1  -1    2.08    3.26
   9   1  -1   -2.32    3.29
   9   1   0    2.51    3.30
   9   1   0    4.21    3.96
   9   2  -7  420.52   13.51
   9   2  -7  437.49   14.24
   9   2  -6  538.24   16.88
   9   2  -6  601.19   18.99
   9   2  -4  166.27    6.33
   9   2  -4  170.57    6.71
   9   2  -3  312.68   10.32
   9   2  -3  298.34   10.11
   9   2  -2  252.81    8.67
   9   2  -2  274.73    9.47
   9   2  -1  363.56   11.89
   9   2  -1  395.92   12.97
   9   3  -8   31.18    3.58
   9   3  -8   31.25    4.14
   9   3  -7    1.81    3.27
   9   3  -7   -0.97    3.82
   9   3  -6   -2.70    2.98
   9   3  -6   -1.53    3.68
   9   3  -5    2.50    3.16
   9   3  -5    7.39    3.92
   9   3  -4    0.41    3.09
   9   3  -4   -2.16    3.57
   9   3  -3    6.01    3.38
   9   3  -3    3.79    3.71
   9   3  -2    2.71    3.31
   9   3  -2    3.17    4.01
   9   4  -7  497.14   15.82
   9   4  -7  504.45   16.17
   9   4  -6  439.95   14.00
   9   4  -6  460.16   14.80
   9   4  -5   97.71    4.56
   9   4  -5   97.01    5.12
   9   4  -4  182.55    6.97
   9   4  -4  173.21    7.08
   0   0   0    0.00    0.00
;
_shelx_hkl_checksum              11026
_olex2_submission_special_instructions 'No special instructions were received'
